13
Energy = -357.5357779214
C     1.0306777    0.9444688    0.1167617 
C     0.6166901    1.1349133   -1.1911482 
C     0.2198217    2.4063186   -1.5803210 
N     0.2140451    3.4564648   -0.7665186 
C     0.6148623    3.2609457    0.4848933 
C     1.0314589    2.0314629    0.9750656 
H     1.3493144   -0.0324214    0.4600740 
H     0.6011619    0.3178326   -1.9011426 
H    -0.1083975    2.5886507   -2.5991491 
H     0.6053495    4.1326899    1.1321905 
H     1.3494907    1.9347867    2.0053302 
N     3.8459374    3.2960775   -0.7945717 
N     3.6490589    2.9520949   -1.8094297 
