16
Energy = -450.8697780878
N     1.1033346    0.4517404    0.0203221 
C     0.0948792   -0.4043256   -0.0149774 
C    -0.5859263   -0.8797476    1.1093568 
C    -0.1296348   -0.3869585    2.3200887 
C     0.9292817    0.5035813    2.2922721 
N     1.5282707    0.9114678    1.1784502 
C    -1.6826093   -1.8293448    0.9457428 
C    -2.4287084   -2.3383133    1.9211236 
H    -0.1905734   -0.7376181   -1.0080485 
H    -0.5699732   -0.6814799    3.2643627 
H     1.3334802    0.9200470    3.2079425 
H    -1.8833111   -2.1270602   -0.0793843 
H    -2.2799783   -2.0786392    2.9626056 
H    -3.2235574   -3.0395229    1.7043907 
N     2.5457941   -2.6896052    0.7549267 
N     2.9758854   -2.2697782    1.6636226 
