14
Energy = -561.0629374647
N     0.3404722    0.0500058   -0.2039899 
C     1.2712632    0.3873962   -1.1628025 
C     1.2641377    1.3594507   -2.0808227 
O     0.3891440    2.3168281   -2.3895895 
N     2.4380883    1.2674378   -2.7982644 
H     2.7226167    1.8593313   -3.5561516 
C     3.1933116    0.2216411   -2.3233825 
O     4.2661506   -0.1594930   -2.6972696 
O     2.4747827   -0.3276416   -1.3091267 
H     0.6804266    0.1434641    0.7440326 
H    -0.0536240   -0.8734363   -0.3264014 
H    -0.3694054    2.2430994   -1.7985590 
N    -3.0203243    2.2078407    0.0363491 
N    -2.1762309    2.3242835   -0.6410830 
