14
Energy = -561.0607556838
O     0.6208632    0.0128212   -0.4412590 
C    -0.7059115   -0.0006296   -0.1846295 
C    -1.4063128    0.6192792    0.7764207 
O    -1.0505505    1.4123493    1.8023139 
N    -2.7333325    0.2564575    0.6358688 
H    -3.5050224    0.6688879    1.1267624 
C    -2.9030797   -0.5658201   -0.4657062 
O    -3.9435500   -0.9893120   -0.9202310 
N    -1.6186329   -0.7717591   -0.9226697 
H    -1.4471621   -1.1283671   -1.8452496 
H     1.0224703   -0.7730205   -0.0524557 
H    -0.1384272    1.6826544    1.6711212 
N     0.2140809   -2.3939074    1.4533070 
N    -0.3754078   -3.0583496    2.0835010 
