17
Energy = -600.3253384309
C     0.7890761    1.3078972   -0.8877245 
O    -0.3809603    1.6109107   -0.1312332 
C    -0.3611973    2.8287149    0.4442637 
C    -0.9339766    3.9800028    0.0577306 
O    -1.6875939    4.3266166   -0.9974865 
N    -0.5720459    4.9569608    0.9682359 
H    -0.9563383    5.8827212    1.0094058 
C     0.2046319    4.4240668    1.9816700 
O     0.6086779    4.9836910    2.9782168 
N     0.3907152    3.1120215    1.5997335 
H     0.6805548    2.4231143    2.2702733 
H     0.6505643    0.3066399   -1.2916383 
H     1.6791213    1.3252308   -0.2542645 
H     0.9162538    2.0249778   -1.7029985 
H    -1.9817735    3.5268237   -1.4446298 
N    -2.6376387    1.6939486   -2.3837698 
N    -2.8532354    0.6794295   -2.7141520 
