17
Energy = -600.3489017681
O     0.8581882   -0.0947443   -0.2858214 
C     0.3656314   -1.2674162    0.3521870 
C     0.7382872   -1.2728987    1.7886957 
C     1.0157310   -0.2124229    2.5718833 
O     1.0033725    1.1025771    2.3221136 
N     1.4282894   -0.6694272    3.8011553 
H     1.6711264   -0.1022174    4.5918912 
C     1.3960153   -2.0572107    3.8440437 
O     1.6461135   -2.7759877    4.7873799 
N     1.0095913   -2.4071623    2.5724886 
H     0.7758236   -3.3550048    2.3449120 
H     1.8167668   -0.1643948   -0.3056281 
H     0.7402049   -2.1736959   -0.1410041 
H    -0.7165965   -1.2444743    0.1960260 
H     0.8216620    1.1954593    1.3758680 
N     4.3286974   -1.5033412    1.7059449 
N     3.7626079   -1.0404447    0.8981282 
