20
Energy = -622.6209713383
N     0.7540444    0.5548450   -0.7612335 
C    -0.3421630    0.0169603   -0.2116642 
O    -1.2931033    0.6810641    0.1758953 
C    -0.3372264   -1.5187515   -0.0448310 
O     0.4363762   -1.8674253    1.0936093 
C    -1.7793995   -1.9864127    0.1362353 
O    -2.6143307   -1.5713786   -0.9108885 
C     0.3217376   -2.2543710   -1.2049633 
O     1.7086900   -1.9918311   -1.2947644 
H     0.7911327    1.5516078   -0.8819530 
H     1.4875769   -0.0481836   -1.1061159 
H     0.0958181   -1.3950933    1.8585281 
H    -2.1393644   -1.6246696    1.1064951 
H    -1.7909028   -3.0779301    0.1599684 
H    -2.7107495   -0.6189642   -0.8045004 
H    -0.1350831   -1.9554474   -2.1472980 
H     0.1469099   -3.3267029   -1.0636327 
H     2.0801656   -2.2184224   -0.4368338 
N    -0.8276912    0.0835656    3.3012558 
N    -1.3470076    0.8966628    3.8054547 
