17
Energy = -600.2912368291
C     0.1112269    1.6387693   -0.1520021 
O     1.4781248    1.4157886   -0.4584971 
C     2.3397048    1.9483528    0.4486213 
C     3.2954088    2.9035777    0.1738527 
O     3.6078466    3.5543300   -0.9505791 
N     3.9764908    3.1197810    1.3079560 
H     4.7617007    3.7279623    1.4385395 
N     3.5227946    2.3585140    2.3363011 
C     2.5454200    1.6539778    1.8133522 
O     1.8327092    0.7713066    2.5335067 
H    -0.1063985    2.7102256   -0.0972781 
H    -0.1578697    1.1692400    0.7969156 
H    -0.4690522    1.1876640   -0.9558371 
H     3.0365704    3.2351481   -1.6577354 
H     2.1886357    0.7822350    3.4272198 
N     0.9592201    2.2974212   -3.9517394 
N     1.7374456    2.7052176   -3.3089993 
