17
Energy = -600.2907812574
C     0.5706335    1.1816261    0.0503632 
O     1.1952367   -0.0112523    0.4898084 
C     0.3732623   -0.9202334    1.0269089 
N    -0.9256190   -0.7480003    1.1541626 
N    -1.3557764   -1.8854420    1.7555490 
H    -2.3331418   -2.0266122    1.9229807 
C    -0.3527954   -2.7405693    2.0069765 
O    -0.5770950   -3.9259057    2.5893923 
C     0.8052485   -2.1574908    1.5532062 
O     2.0363803   -2.7450800    1.5748524 
H     0.0764355    1.6902860    0.8810526 
H    -0.1747082    0.9688582   -0.7185786 
H     1.3638560    1.8046492   -0.3561911 
H     0.2684541   -4.3785802    2.6594511 
H     2.6583131   -2.1398872    1.9869034 
N     2.9260810   -0.1688207    3.1736888 
N     2.8060177    0.8445547    3.5530664 
