17
Energy = -600.2907343463
N     2.5095625    0.6579993   -0.4887415 
C     1.9989429    1.0228698    0.7131086 
C     1.4701983    0.2696071    1.7249881 
C     1.3764412   -1.2122209    1.7830873 
O     2.5903978   -1.8415890    1.3909575 
C     1.1027133    1.2656548    2.6574189 
O     0.5430684    1.0208930    3.8471472 
N     1.3641603    2.4821809    2.2658870 
O     1.9520226    2.3199820    1.0027916 
H     2.8541919   -0.2889650   -0.5129499 
H     3.0922890    1.3389443   -0.9456074 
H     0.6253314   -1.5918453    1.0859607 
H     1.0701878   -1.5232780    2.7871159 
H     3.2634918   -1.5832796    2.0250474 
H     0.4013231    1.8668023    4.2847154 
N     3.8887747    0.4355303    4.8017724 
N     3.8820861   -0.3150781    4.0128149 
