15
Energy = -599.0749263761
N    -3.0231105   -2.0394796    0.0017708 
C    -2.1127597   -1.3413331    0.7161119 
C    -0.7442382   -1.3839190    0.6624023 
O    -0.2179654   -0.4654579    1.5168981 
N    -1.2402904    0.1806415    2.1455900 
C    -2.3485970   -0.3239779    1.6834383 
O    -3.5627499    0.0614070    2.0760912 
C     0.0960889   -2.2466856   -0.1136581 
O    -0.3684008   -3.0812289   -0.8690868 
H    -3.9620164   -2.0884696    0.3525501 
H    -2.6703620   -2.8268526   -0.5173541 
H    -3.4705784    0.7549251    2.7413962 
H     1.1860899   -2.1198449    0.0143280 
N    -3.0239156    2.2608147    4.1943786 
N    -2.6074315    2.9797686    4.8974594 
