15
Energy = -599.1022845790
O     1.3613377    0.2018607    0.3072622 
C     1.1496164   -0.4640364    1.4479655 
C     0.9015611   -0.0858413    2.7458925 
O     0.8011597    1.1635434    3.2349049 
C     0.7768441   -1.3052069    3.4454230 
C     0.5104888   -1.3960735    4.8575339 
O     0.3750380   -0.3967636    5.5425359 
N     0.9355569   -2.3611365    2.6414357 
N     1.1571868   -1.8211675    1.4529220 
H     1.3123753   -2.4093023    0.6525472 
H     1.3251887    1.1487254    0.4824669 
H     0.6223693    1.0564865    4.1843783 
H     0.4345071   -2.4075611    5.2918696 
N     1.2252098    4.2499566    1.2137624 
N     1.2739769    3.2203581    0.8645480 
