14
Energy = -615.1666025951
O     0.1814270    0.2804503    0.3550377 
C     0.5302327    1.0677510   -0.6642924 
N     1.2642540    0.6405344   -1.6242335 
N     1.5550366    1.5090198   -2.5935407 
H     2.1324397    1.1562718   -3.3384652 
C     1.1469194    2.8320009   -2.6739138 
O     1.4779726    3.5239492   -3.6058330 
N     0.3555064    3.2571523   -1.6204158 
C     0.0635681    2.4372941   -0.6778213 
O    -0.6909563    2.8183241    0.3409568 
H     0.5756744   -0.5902647    0.2150846 
H    -0.9180643    3.7450614    0.1869601 
N     2.0363584   -3.4490129   -0.2723812 
N     1.4931641   -2.5377068   -0.0286228 
