17
Energy = -600.3070046247
O     2.6447962    0.9434520    0.9261840 
C     1.3746166    0.3225234    0.8758404 
C     0.9337213   -0.1685113    2.2072720 
C    -0.2743636   -0.0836609    2.8618160 
O    -1.4124439    0.4830981    2.3913010 
C    -0.0516785   -0.7046705    4.1035728 
O    -0.9895118   -0.8362396    5.0617871 
N     1.1846793   -1.1366952    4.2265682 
N     1.7617352   -0.8216641    3.0586267 
H     2.7459109   -0.9654608    2.9326824 
H     2.5913689    1.6767685    1.5435768 
H     1.4828861   -0.5050236    0.1702339 
H     0.6024067    0.9892343    0.4778541 
H    -2.0877100    0.4095519    3.0688045 
H    -0.5845184   -1.2771805    5.8136499 
N     2.1577467    2.3460063    3.9087704 
N     1.8465576    2.2233239    4.9453560 
