17
Energy = -600.3184723403
O    -0.1707196   -0.4132283   -0.3916386 
C    -0.9517922    0.4679271    0.4214678 
C    -1.7536737    1.3864773   -0.4282564 
C    -1.3529860    1.8611713   -1.6616088 
O    -0.2332137    1.6319639   -2.3497159 
N    -2.3376954    2.6234776   -2.1514527 
H    -2.3605587    3.1034513   -3.0309911 
N    -3.3975930    2.6979035   -1.3007465 
C    -3.0368136    1.9505855   -0.2819320 
O    -3.8389750    1.7643704    0.7793771 
H    -0.7821845   -0.9954367   -0.8503056 
H    -0.2216050    1.0024624    1.0340008 
H    -1.5971256   -0.0928766    1.1038761 
H     0.2184038    0.9122040   -1.8795921 
H    -4.6505549    2.2530241    0.6122133 
N    -2.8131657   -1.0852056   -2.3236650 
N    -3.6264741   -0.7140752   -2.9459697 
