14
Energy = -341.5066389458
C     1.0998721    0.5081755   -0.0310527 
C     1.6640528   -0.0873455   -1.1499890 
C     2.8273714    0.4319367   -1.7000108 
C     3.4247783    1.5487106   -1.1327923 
C     2.8599081    2.1449878   -0.0145994 
C     1.6982860    1.6238663    0.5372553 
H     0.1935190    0.1010824    0.4006538 
H     1.1980244   -0.9593659   -1.5927412 
H     3.2701785   -0.0352453   -2.5712717 
H     4.3334270    1.9533112   -1.5619941 
H     3.3271348    3.0157112    0.4294521 
H     1.2594070    2.0867944    1.4127736 
N     4.4369981   -1.1578701    1.0181809 
N     3.8274876   -0.8496036    1.8669705 
