17
Energy = -522.2266978613
C     0.8105262    0.4649600   -0.2383693 
N    -0.5696455    0.1525162    0.0364769 
C    -1.6011529    1.0396620   -0.1700210 
C    -2.7489087    0.3321617    0.1159339 
N    -4.1015650    0.3168400    0.2166601 
N    -4.5271876   -0.9102221    0.6118399 
N    -3.5280342   -1.6875674    0.7792803 
C    -2.3898077   -0.9803915    0.4877562 
C    -1.0092262   -1.0746043    0.4256654 
H     1.0327216    0.3614673   -1.3026223 
H     1.4517130   -0.2111777    0.3237187 
H     1.0256989    1.4868767    0.0717494 
H    -1.4114588    2.0494485   -0.4871960 
H    -4.7846909    1.0281982    0.0388354 
H    -0.3227409   -1.8798523    0.6201003 
N    -1.7793660   -0.4920012   -3.0762612 
N    -1.1879435   -1.3724722   -2.8244052 
