20
Energy = -507.4369689255
N     0.8786012    0.0113962   -0.7004782 
C     0.5457657    1.3375129   -0.3851161 
C     0.4420522    1.8885108    0.8667410 
N     0.6053265    1.5147101    2.2142406 
C     0.5728707    2.7978118    2.9329378 
C    -0.2037888    3.7867360    2.0362731 
N     0.0312273    3.1884832    0.7472722 
C    -0.1634954    3.4938400   -0.5619405 
C     0.1505574    2.3638805   -1.2896296 
H     1.3263726   -0.0606294   -1.6014384 
H     1.4831356   -0.3977794   -0.0028190 
H    -0.1565255    0.9171113    2.5153265 
H     1.5981397    3.1543724    3.0544944 
H     0.1299894    2.6813396    3.9207435 
H     0.1936573    4.8000971    2.1003826 
H    -1.2743813    3.8133891    2.2691900 
H    -0.4599639    4.4763788   -0.8873406 
H     0.1208757    2.2833073   -2.3653783 
N    -3.0434198    1.8883385    0.1654427 
N    -2.5369495    1.2568378    0.8955424 
