17
Energy = -522.2558781473
N     0.7663211    0.3153888   -0.0593127 
C     1.1036780    0.3294338    1.2926045 
C     0.5839029    1.1225939    2.2809773 
N     1.0921477    0.7264120    3.5320530 
H     1.0427639    1.2883786    4.3595449 
C     1.9799305   -0.2642214    3.2839018 
C     2.0108904   -0.5779037    1.9342945 
C     2.9466222   -1.6377296    1.8611246 
N     3.4374704   -1.9263088    3.0522791 
N     2.8355430   -1.0808513    3.9267258 
H     3.0847175   -1.1234650    4.8955959 
H     0.3074543    1.1589970   -0.3649392 
H     1.5561491    0.1219801   -0.6552981 
H    -0.1456764    1.9129917    2.2196011 
H     3.2842975   -2.2040876    1.0070542 
N     3.8067522    2.3968544    1.8893847 
N     3.8925548    2.3513193    2.9746309 
