17
Energy = -522.2361954625
N     0.7667078    0.5471919    0.4042503 
C     1.5658460    0.9343436   -0.6561218 
C     1.5011805    0.6218194   -1.9929769 
C     0.7916272   -0.0478852   -3.1189162 
C     1.6727662    0.3268120   -4.2901450 
C     2.6992368    1.0766357   -3.8827029 
N     2.5917365    1.2505717   -2.5002592 
N     3.2939147    1.8949990   -1.5916938 
N     2.6674410    1.7077020   -0.4604461 
H    -0.2207945    0.5736497    0.2066729 
H     0.9826518    1.0774026    1.2348201 
H    -0.2321805    0.3175988   -3.2553371 
H     0.7234368   -1.1338251   -2.9942880 
H     1.4864928    0.0232595   -5.3085131 
H     3.5166635    1.5205416   -4.4268153 
N     0.9345816    4.1196999   -2.6900506 
N     0.1196050    3.5605679   -2.2311073 
