17
Energy = -522.2578382236
N     0.4066446    0.6191698   -0.0707888 
C     1.6445030    0.5036809    0.5811101 
C     2.8705273    1.0071949    0.2049667 
N     3.8278669    0.7172919    1.1582538 
H     4.7719383    1.0477839    1.1423561 
C     3.2209409    0.0213107    2.1664954 
C     1.8794582   -0.1189568    1.8363423 
N     1.3244820   -0.8360090    2.8451105 
H     0.3657592   -1.0882543    2.9869306 
N     2.2236441   -1.1395582    3.7950454 
C     3.3842342   -0.6346257    3.4007180 
H     0.4685437    1.1883225   -0.9013426 
H     0.0266704   -0.2817364   -0.3286396 
H     3.1276828    1.5594493   -0.6849852 
H     4.2602521   -0.7671814    4.0150632 
N     2.9149687   -2.4340178   -0.3752443 
N     3.9612536   -2.4470321   -0.0716332 
