17
Energy = -522.2668170223
N     0.3737437   -0.1826042   -0.3073418 
C     0.4482724    0.9052066    0.5583122 
N    -0.3355146    1.9614862    0.4217586 
N     0.0363276    2.8541139    1.3724916 
H    -0.4213278    3.7428361    1.4061725 
C     1.0536752    2.3795316    2.1287679 
C     1.3454809    1.1204512    1.6245163 
N     2.3678206    0.5960968    2.3748615 
H     2.8515253   -0.2643555    2.2083095 
C     2.7158633    1.5240596    3.3215093 
C     1.9258407    2.6459967    3.2160023 
H    -0.3898294   -0.0628391   -0.9574146 
H     0.2652194   -1.0598990    0.1810044 
H     3.5138189    1.3214160    4.0176979 
H     1.9850743    3.5176964    3.8455481 
N    -1.5696937    0.1573092    3.0240147 
N    -1.8975313    1.1111395    3.4359216 
