16
Energy = -396.8248741536
C     1.1186722    0.8550165    0.1892837 
C     1.9221317    0.9917975    1.3082313 
C     1.7256023    2.1014570    2.1166525 
N     0.8116871    3.0334518    1.8809880 
C     0.0330866    2.9000420    0.8062405 
C     0.1615413    1.8216894   -0.0656491 
C    -0.9989927    3.9602807    0.5928515 
H     1.2338071    0.0071324   -0.4754883 
H     2.6832177    0.2621922    1.5524231 
H     2.3367196    2.2469985    3.0027405 
H    -0.4864023    1.7463404   -0.9301520 
H    -1.7585155    3.9041752    1.3760566 
H    -1.4917520    3.8569288   -0.3734204 
H    -0.5419455    4.9482464    0.6589163 
N    -1.7727971    0.7695923    2.6863113 
N    -1.0137877    0.2783462    3.2942172 
