17
Energy = -522.2835508753
N     0.6179070    0.4698407    0.2093103 
C     1.5975713    1.4471448    0.2463459 
C     1.8752162    2.4094793   -0.7042302 
N     2.8975344    3.1570654   -0.1336331 
C     3.7577820    4.2172966   -0.3335672 
C     4.5308765    4.3044483    0.7795499 
N     4.1468417    3.3076220    1.6559327 
H     4.5618797    3.0994145    2.5426767 
C     3.1432848    2.5958749    1.0786795 
N     2.3891050    1.5585161    1.3596133 
H     0.8102460   -0.2708695    0.8647451 
H     0.4275093    0.1090204   -0.7107593 
H     1.4481022    2.6281300   -1.6652032 
H     3.7572889    4.8219617   -1.2220201 
H     5.3183084    4.9969180    1.0156757 
N     5.1128353    0.8625798   -0.6450685 
N     4.4325675    0.3200136   -1.3013852 
