20
Energy = -507.4398411261
N     0.2087670    0.1037922   -0.4121695 
C     1.4072916    0.7839170   -0.1805748 
C     2.6597324    0.2298353   -0.0396559 
N     3.5526266    1.2873037   -0.0126087 
C     4.9194033    1.4852500    0.3907710 
C     5.0959109    2.9638918    0.0237774 
N     3.7484487    3.5183135    0.2030670 
C     2.8776171    2.4577312   -0.0456715 
C     1.5332249    2.2084475   -0.1717840 
H    -0.5796176    0.5440867    0.0364455 
H     0.2498605   -0.8667118   -0.1435618 
H     2.9850785   -0.7960892   -0.0505323 
H     5.6110416    0.8374660   -0.1488485 
H     5.0435950    1.3175773    1.4674360 
H     5.4274967    3.0418921   -1.0182808 
H     5.8183994    3.4684714    0.6644907 
H     3.5674585    4.3468808   -0.3418231 
H     0.7365129    2.9281039   -0.2628239 
N     3.2445171    1.8236559   -3.1609512 
N     2.9493717    0.7789626   -3.2619031 
