18
Energy = -506.2392601355
N     0.6282207    0.4510563   -0.2607944 
C     1.2999350    0.2150701    0.9290969 
C     0.7803072    0.1322410    2.2079517 
N     1.8652472   -0.1840581    2.9894701 
C     2.2118733   -0.4096479    4.3671321 
C     3.6910461   -0.6778925    4.2661463 
C     4.0934586   -0.5933229    2.9898623 
C     2.9409345   -0.2752619    2.1759513 
N     2.6419208   -0.0373821    0.9165818 
H    -0.1310074    1.1076431   -0.1838629 
H     1.2682559    0.7185768   -0.9921284 
H    -0.2175244    0.2504246    2.5916135 
H     1.6668099   -1.2593928    4.7889580 
H     2.0004145    0.4700255    4.9827996 
H     4.3013407   -0.9003670    5.1279282 
H     5.0940306   -0.7328563    2.6113566 
N     2.4745673    3.2286119    2.1990773 
N     2.7924735    2.8624048    3.1746715 
