17
Energy = -522.2379174630
N     0.5758308    0.3670836   -0.0080524 
C    -0.5044221   -0.2121606    0.6306014 
C    -1.5329872   -0.9947728    0.1442141 
C    -2.1498490   -1.7135093   -0.9468630 
C    -3.2586843   -2.3163419   -0.4889532 
C    -3.4585760   -2.0269408    0.9759119 
N    -2.3095439   -1.1917763    1.2402398 
N    -1.8439813   -0.5977940    2.3132128 
N    -0.7386796    0.0004630    1.9499081 
H     1.0380533   -0.2350121   -0.6699877 
H     1.2326109    0.7445826    0.6580201 
H    -1.7773104   -1.7508992   -1.9591948 
H    -3.9427186   -2.9254669   -1.0603122 
H    -3.4388695   -2.9269840    1.5960853 
H    -4.3888697   -1.4902230    1.1797170 
N     0.4159515   -3.3699545    1.6999906 
N    -0.5268749   -3.7149236    2.1228816 
