18
Energy = -539.5311247640
N     0.3454665    0.3054521    0.3380969 
C     0.1902405   -0.6267565    1.1987936 
N     1.0100612   -1.7286666    1.3906352 
N    -0.8459341   -0.5943703    2.0950539 
C    -1.8701908    0.3350956    2.1188860 
C    -2.9813938    0.3964937    2.9361609 
C    -3.6615754    1.5408167    2.4825420 
N    -3.0348576    2.1289802    1.4791268 
N    -1.9443457    1.3784263    1.2762949 
H    -1.2456517    1.5719540    0.5720343 
H     1.1060264    0.1043783   -0.2984963 
H     1.7190043   -1.8362095    0.6854225 
H     0.5281603   -2.5945230    1.5763386 
H    -0.7901916   -1.2083053    2.8863377 
H    -3.2554070   -0.2817099    3.7267631 
H    -4.5877753    1.9533265    2.8518817 
N    -2.9422457   -1.5599961   -0.6674691 
N    -2.2375015   -2.2799400   -0.2529759 
