19
Energy = -436.1138734481
C     0.7189995    1.0389418    0.3795991 
C     1.1224577    1.8611290   -0.6571235 
C     0.3858119    1.8597865   -1.8382252 
N    -0.6922604    1.0947093   -1.9976884 
C    -1.0817318    0.2990328   -1.0036009 
C    -0.3990345    0.2425246    0.2081220 
C    -2.2891859   -0.5450717   -1.2610082 
C     0.7750947    2.7125688   -3.0034631 
H     1.2714425    1.0179031    1.3116724 
H     1.9938500    2.4962352   -0.5601282 
H    -0.7428495   -0.4153944    0.9961711 
H    -2.5902421   -1.1020668   -0.3742765 
H    -2.0838609   -1.2550068   -2.0651663 
H    -3.1211503    0.0793491   -1.5898598 
H    -0.0739926    3.3155778   -3.3283526 
H     1.0625415    2.0820957   -3.8476695 
H     1.6088622    3.3711752   -2.7622242 
N     1.3795613   -1.7367228   -2.1527219 
N     2.0436996   -0.9889803   -2.5848983 
