20
Energy = -507.4412818437
N    -0.2100893    0.5127420   -0.2525260 
C     1.1219075    0.9104026   -0.0452241 
C     2.3438066    0.4255780   -0.4508051 
C     3.3715646    1.2837298    0.0469355 
C     2.7202090    2.2737801    0.7386062 
N     2.9740399    3.3686620    1.5707447 
C     1.6976097    4.0920403    1.6545442 
C     0.6449710    2.9881376    1.4799199 
N     1.3846840    2.0591567    0.6657344 
H    -0.4254933   -0.3698074    0.1885963 
H    -0.4396490    0.4446944   -1.2334881 
H     2.4877318   -0.4495444   -1.0656981 
H     4.4343092    1.1750729   -0.0907159 
H     3.7485341    3.9422730    1.2756429 
H     1.5961056    4.8223492    0.8427990 
H     1.6001383    4.6095202    2.6084714 
H    -0.2606941    3.3357248    0.9854018 
H     0.3701857    2.5344289    2.4376559 
N     1.2864853    2.8715636   -2.5366666 
N     1.8889896    3.6589100   -2.0832568 
