18
Energy = -506.2292546010
C     0.7208841    0.8559452   -0.0413478 
N     1.1592592    0.4999654   -1.3598053 
C     1.3105545   -0.7739968   -1.8792159 
N     1.7800415   -0.8033391   -3.0961919 
C     1.9589660    0.5208262   -3.4233344 
C     1.5769097    1.3160892   -2.3640374 
N     1.7968534    2.6238870   -2.6483866 
H     1.6005446    3.4232017   -2.0784903 
C     2.3257876    2.6642570   -3.9334684 
C     2.4418306    1.3942464   -4.4390219 
H     0.4591537   -0.0521278    0.4990120 
H    -0.1614407    1.4991428   -0.0799200 
H     1.5129951    1.3691854    0.5094610 
H     1.0388188   -1.6349144   -1.2860275 
H     2.5676593    3.6124474   -4.3835105 
H     2.8280803    1.1449198   -5.4135131 
N     4.4499276    1.3309520   -1.1283470 
N     5.1446255    1.3534868   -1.9673491 
