17
Energy = -522.2615227574
C     1.2304389    1.0033469    0.4085079 
N     1.2082303   -0.0649729    1.4028429 
C     1.7124380   -1.1953117    1.1595295 
N     2.3520512   -1.6050880   -0.0110725 
C     2.1912700   -0.7344957   -1.0689070 
C     1.6579955    0.5195715   -0.9382657 
C     1.6574638    1.0165351   -2.2561049 
N     2.1543128    0.1435016   -3.1178078 
N     2.4811192   -0.9269240   -2.3674300 
H     2.8824034   -1.7328022   -2.8095576 
H     1.8932656    1.7911740    0.7872610 
H     0.2318282    1.4500970    0.3795088 
H     1.6832887   -1.9665293    1.9264075 
H     2.3894842   -2.5949852   -0.1856526 
H     1.3154898    1.9756978   -2.6143555 
N    -1.1835626   -1.3911452   -2.1409136 
N    -0.5080191   -2.2215608   -1.9393542 
