17
Energy = -522.2814338818
N     0.7445362    0.5338295    0.0958049 
C     0.3853566   -0.6359144   -0.2449201 
N    -0.6488884   -0.8792031   -1.1427265 
C    -0.7797853   -2.2639145   -1.5699354 
C     0.2118438   -2.8930949   -0.6633020 
C     0.8661066   -1.9770713    0.0938204 
N     1.7848694   -2.5609514    0.9164593 
C     1.6740751   -3.8368180    0.6516371 
N     0.7240615   -4.0992349   -0.3072713 
H     1.5044796    0.4751914    0.7653854 
H    -0.9534468   -0.1257690   -1.7321708 
H    -0.5197046   -2.3952977   -2.6275502 
H    -1.7995683   -2.6373812   -1.4227073 
H     2.2456205   -4.6283800    1.1112116 
H     0.4807374   -5.0066680   -0.6614137 
N     2.0877252   -1.1103071   -3.0574171 
N     2.9355505   -0.5013952   -2.7460136 
