18
Energy = -506.2403251263
C     0.7280963    0.7432603    0.1727879 
C     0.7625376    1.2873602    1.5517984 
C     1.3516563    0.7911864    2.6883794 
C     1.0564157    1.7125961    3.7356591 
C     0.3031935    2.7195539    3.1753766 
N     0.0183962    3.6090870    4.1655905 
H    -0.5371737    4.4422218    4.1260923 
C     0.6139621    3.0784541    5.2967754 
N     1.2410320    1.9563955    5.0769131 
N     0.1192396    2.4883855    1.8501806 
H    -0.4098520    3.0305956    1.1948697 
H     1.2859399   -0.1911487    0.1356007 
H     1.1786431    1.4285214   -0.5518073 
H    -0.2930610    0.5318637   -0.1595346 
H     1.9167684   -0.1253350    2.7389868 
H     0.5391769    3.5830450    6.2475671 
N    -2.0206700   -0.0314972    2.8590700 
N    -2.2532800    0.8340359    3.4791728 
