18
Energy = -506.2393686995
C     0.6273797    0.5149551    0.1174003 
N     0.0720966    1.6875201    0.7350270 
C    -0.2811680    1.8330398    2.0563930 
C    -0.8726553    3.0609868    2.2801977 
C    -0.8828046    3.6876809    1.0131753 
C    -0.3078858    2.8293390    0.0960667 
N    -0.2797761    3.3247169   -1.1668971 
C    -0.8400648    4.5056214   -1.0285986 
N    -1.2228063    4.7839894    0.2574390 
H    -1.6728782    5.6263527    0.5615976 
H     1.1727307   -0.0627941    0.8622810 
H     1.3170278    0.8130131   -0.6715730 
H    -0.1514503   -0.1149090   -0.3198040 
H    -0.0768412    1.0406731    2.7581716 
H    -1.2250301    3.4217625    3.2319435 
H    -0.9975652    5.2118645   -1.8287514 
N    -3.4234338    1.7322191    0.0329688 
N    -3.0164646    0.7485186    0.2647407 
