18
Energy = -506.2285751874
C     0.1275255    1.0406063   -0.2279297 
N     0.4359528    2.3698735    0.2138486 
C     0.9830002    3.3912592   -0.5547857 
C     1.1003870    4.5446533    0.1803718 
C     0.5978322    4.2312017    1.4742212 
C     0.2095640    2.9086724    1.4352654 
N    -0.2828445    2.5955637    2.6663606 
H    -0.6858288    1.7353290    2.9857583 
C    -0.1717185    3.7670020    3.3953803 
N     0.3481777    4.7550315    2.7222711 
H    -0.9486914    0.8496530   -0.1937437 
H     0.6391341    0.2929745    0.3836756 
H     0.4630113    0.9250725   -1.2566794 
H     1.2458606    3.1935862   -1.5812550 
H     1.4975856    5.4786548   -0.1810382 
H    -0.4956356    3.8084991    4.4239572 
N    -2.3677314    4.3241524   -0.6911477 
N    -2.5482725    3.5215283    0.0233772 
