18
Energy = -506.2535798913
C     0.6402671    0.7702240    0.2351949 
C     0.8527026   -0.2162696   -0.8497061 
N     1.1107097   -1.4962053   -0.6706056 
C     1.2248774   -1.9747218   -1.9360130 
C     1.0399586   -1.0112194   -2.9053540 
N     0.7963863    0.1314699   -2.1784239 
H     0.6218691    1.0550355   -2.5270775 
C     1.1964875   -1.6096210   -4.1774607 
C     1.4724120   -2.9353034   -3.9126029 
N     1.4888671   -3.1594309   -2.5554048 
H     1.6774295   -4.0368196   -2.1103078 
H     0.7594342    0.2648042    1.1907699 
H    -0.3619997    1.2054186    0.1968617 
H     1.3639846    1.5877468    0.1828680 
H     1.1246339   -1.1709184   -5.1586426 
H     1.6582457   -3.7406676   -4.6032185 
N     4.2569486   -0.7350929   -1.9434884 
N     4.0259118    0.2186699   -1.4697772 
