17
Energy = -522.2857417862
N     0.8216424    0.7578078   -0.1885749 
C     1.1273110    1.7162947    0.7195560 
N     0.4816171    1.9055734    1.8241571 
C     1.0655808    3.0471713    2.5257523 
C     2.1760027    3.4836218    1.6351365 
C     2.2106094    2.6760224    0.5429472 
N     3.2250867    2.9989787   -0.3119987 
C     3.8050518    4.0164621    0.2743503 
N     3.2061792    4.3541497    1.4653150 
H     3.4924687    5.0997023    2.0734726 
H     0.2008825    0.0273059    0.1111785 
H     1.5244384    0.5135654   -0.8616504 
H     1.4125948    2.7353113    3.5163413 
H     0.3064013    3.8210575    2.6796325 
H     4.6593802    4.5578874   -0.1025131 
N     3.4057507    0.4525955    2.9452208 
N     3.3945045   -0.4047723    2.2734613 
