17
Energy = -522.2905590827
N     0.2643154   -0.1391551   -0.9140243 
C    -0.9179632   -0.3021898   -0.4888416 
N    -1.8349174    0.7085951   -0.5824879 
C    -3.1412734    0.6983802   -0.1755290 
N    -3.7991670    1.8365225   -0.3965029 
C    -5.0673846    1.8790407   -0.0208374 
N    -5.7704290    0.9149466    0.5554339 
C    -5.0985636   -0.2158797    0.7693205 
C    -3.7760511   -0.3926794    0.4269156 
H     0.8137001   -0.9784282   -0.7709880 
H    -1.2992334   -1.2158777   -0.0310404 
H    -1.5177094    1.5718635   -1.0025469 
H    -5.5869087    2.8140781   -0.2088183 
H    -5.6496913   -1.0241142    1.2406023 
H    -3.2787229   -1.3312021    0.6230654 
N    -0.0133394    3.0972155   -2.0417819 
N     0.8795678    3.5417240   -2.4784487 
