17
Energy = -522.2697199257
C     0.8011719    0.5188249    0.0440697 
C     1.5275480   -0.4090705    0.9420555 
C     2.7665872   -1.0192173    0.8664725 
N     3.9131705   -1.1489713    0.1075744 
C     4.6366162   -1.9854526    0.7925539 
N     4.0587415   -2.4303306    1.9655400 
H     4.4549945   -3.0835207    2.6146584 
C     2.8391976   -1.8108707    2.0223545 
N     1.7773415   -1.7513453    2.8000469 
N     1.0031515   -0.8845298    2.1023737 
H     0.1014214   -0.6536490    2.4776282 
H    -0.0063794    0.0109693   -0.4902414 
H     1.4906834    0.9196536   -0.6970525 
H     0.3670139    1.3579803    0.5921339 
H     5.6186033   -2.3287238    0.5007881 
N     0.0962965   -3.3308386    0.1088170 
N     0.9435145   -3.9951229    0.2751965 
