18
Energy = -506.2487785381
C     0.5434052    0.7002602    0.0433608 
C     1.4244037   -0.4968598    0.1032380 
C     1.1620940   -1.6846757    0.7551354 
N     2.1991778   -2.5793276    0.5916502 
H     2.2342060   -3.5096519    0.9609586 
C     3.1454413   -1.9705485   -0.1751145 
C     2.6991757   -0.7015719   -0.4852962 
N     3.7045318   -0.1878044   -1.2705536 
H     3.7478650    0.7143699   -1.7050147 
C     4.6559727   -1.1672262   -1.3728722 
N     4.3514326   -2.2670420   -0.7198247 
H     0.2655113    0.9460990   -0.9856487 
H     1.0292818    1.5832669    0.4679812 
H    -0.3781877    0.5316742    0.6013111 
H     0.2928786   -1.9522490    1.3338357 
H     5.5607513   -1.0179644   -1.9411202 
N     0.7095463   -3.1747946   -2.3601712 
N     1.2912518   -2.4173015   -2.8846001 
