14
Energy = -432.7242673268
C     1.0967080    1.7942609   -0.0881519 
C     0.0746497    1.3265801    0.7302097 
C    -1.1752812    1.1215854    0.1695147 
N    -1.4680168    1.3425158   -1.1064522 
C    -0.4763034    1.7898380   -1.8731742 
C     0.8099160    2.0315078   -1.4267807 
O     2.3463168    2.0275230    0.3515307 
H     0.2456511    1.1253983    1.7816007 
H    -1.9866625    0.7565580    0.7924631 
H    -0.7222572    1.9684806   -2.9156300 
H     1.5811090    2.3956917   -2.0924858 
H     2.4071372    1.8248303    1.2891205 
N     3.0736273    1.2984002    4.5057115 
N     2.8321265    1.4596550    3.4564630 
