16
Energy = -505.0405626573
N     0.1625638    0.1258821    0.4130664 
H     0.4712011   -0.0884249    1.3519199 
C    -0.0066344    1.3990016    0.0117706 
N    -0.4008173    1.7430225   -1.1825066 
C    -0.6583721    0.7691423   -2.0816459 
C    -0.5189655   -0.5632499   -1.7793582 
C    -0.6759602   -1.8318348   -2.3948603 
C    -0.3338422   -2.7416166   -1.4190722 
N     0.0347164   -2.1775438   -0.2141828 
C    -0.0796254   -0.8950430   -0.4430340 
H     0.2055517    2.1641449    0.7486246 
H    -0.9831496    1.1075037   -3.0603113 
H    -0.9928924   -2.0410413   -3.4035192 
H    -0.3302656   -3.8187539   -1.5153826 
N     1.2591571   -2.6138655    3.4373244 
N     1.0629614   -1.6522032    2.9665051 
