17
Energy = -563.2639875415
N     0.5591955    0.2755024   -0.0659631 
C     1.6097734    0.0234671   -0.8766020 
O     1.5638542   -0.9004895   -1.7047555 
C     2.7860315    0.8521113   -0.7742918 
C     3.8611168    0.5686324   -1.6042468 
O     3.9642368   -0.3781288   -2.5137721 
N     4.8555405    1.4350602   -1.3320716 
H     5.7498795    1.4314649   -1.7870539 
C     4.4507945    2.2975523   -0.3236231 
C     3.1829843    1.9630803    0.0371841 
H    -0.2170367   -0.3601913   -0.0880017 
H     0.6262271    0.9401812    0.6803955 
H     3.0745778   -0.8283675   -2.4541509 
H     5.1070789    3.0704474    0.0364491 
H     2.6029722    2.4641966    0.7958165 
N     5.5655729   -0.7444179    1.1156454 
N     4.5717428   -1.0331882    1.4559130 
