19
Energy = -527.1818512114
O     2.1907902   -1.0899516    2.5188831 
C     1.3381612   -1.1171693    3.6295698 
H     0.8146214   -2.0788197    3.6345576 
C     2.0858310   -1.0928233    4.9001602 
N     2.6323960   -1.1199289    5.9112094 
C     0.2776747   -0.0163615    3.5088337 
H    -0.6073598   -0.4411141    3.0308641 
C     0.0101761    1.0960954    4.5352698 
H    -0.4126746    1.0117988    5.5376864 
C     1.3635178    1.6654164    4.0917763 
N     0.7561548    1.2272726    2.7617940 
C    -0.5228453    1.8528048    3.3100763 
H     2.0886274   -0.2180193    2.1119454 
H     2.2781489    1.1442945    4.3651422 
H     1.4996439    2.7450216    4.1608704 
H    -1.4305892    1.4856508    2.8289568 
H    -0.4850954    2.9417627    3.3301307 
N    -1.1199458   -2.1305295    7.1383943 
N    -0.8839172   -2.0701334    6.0768394 
