17
Energy = -563.2033116517
N     0.9097890   -0.0457856    0.0067925 
C     1.6388004   -0.1740241   -1.1757908 
C     1.5280146    0.6862654   -2.2037258 
O     2.1695987    0.4849830   -3.3967829 
C     2.9822007   -0.5655798   -3.5879852 
N     3.6188252   -0.7969999   -4.6657575 
C     3.1387100   -1.5097641   -2.4884891 
O     3.9507513   -2.5302952   -2.7485781 
C     2.4846048   -1.3245628   -1.3263380 
H     0.4680556    0.8526435    0.1210867 
H     1.4403715   -0.2839646    0.8305057 
H     0.9248685    1.5803141   -2.2189122 
H     3.4565923   -0.1017253   -5.3845854 
H     4.2459979   -2.3752824   -3.6676812 
H     2.5800034   -2.0415283   -0.5206784 
N     0.0624017   -2.2721940   -3.8327490 
N    -0.6409287   -1.4711031   -3.6065655 
