16
Energy = -583.0607758216
O     0.6121867    0.2478011   -0.0004451 
C     0.9806687   -0.6474445   -0.9510403 
C     0.8306840   -1.9766823   -0.8344500 
O     1.2186699   -2.8305107   -1.8302346 
C     1.7650031   -2.3752371   -2.9713106 
N     2.1426256   -3.1193365   -3.9311722 
C     1.9327807   -0.9335874   -3.1189895 
O     2.4753693   -0.5574422   -4.2718503 
C     1.5548811   -0.0924136   -2.1368033 
H     0.2324420   -0.2121811    0.7508106 
H     0.4057852   -2.4989153    0.0088895 
H     1.9942940   -4.1065560   -3.7584780 
H     2.6280104   -1.3943305   -4.7535676 
H     1.6712446    0.9787445   -2.2276928 
N    -1.4078157   -1.4630699   -3.7796453 
N    -1.8574556   -1.8404238   -2.8614967 
