21
Energy = -528.5379659731
C     0.7243989    1.1395569   -0.1044520 
C    -0.4584720    0.3325996   -0.4842611 
C    -0.7836529   -0.9850644   -0.2876562 
C    -0.0189983   -2.0587958    0.4057391 
C    -0.8991393   -2.8734814    1.3491346 
O    -1.8846519   -3.6039362    0.6684985 
N    -2.0238056   -1.2442062   -0.8292297 
C    -2.4439809   -0.1183803   -1.3399974 
N    -1.5308058    0.8635191   -1.1623660 
H    -1.6214267    1.8166240   -1.4646559 
H     1.2544602    1.5268741   -0.9790104 
H     1.4257999    0.5259338    0.4585513 
H     0.4510622    1.9907458    0.5253178 
H     0.8080045   -1.6188308    0.9690251 
H     0.4176637   -2.7435200   -0.3291378 
H    -1.3452661   -2.1990084    2.0952269 
H    -0.2824037   -3.5949206    1.8906923 
H    -2.3016699   -2.9862802    0.0486726 
H    -3.3854186    0.0402548   -1.8416157 
N    -2.3676270    0.6252663    2.2298451 
N    -3.3038847    0.8193472    1.7068417 
