20
Energy = -585.4960318498
C    -0.0105546    2.2703215   -0.9370220 
C     1.3294539    1.9291572   -0.3503261 
H     1.2121611    1.3386240    0.5647541 
O     2.0664416    1.1082570   -1.2954519 
C     3.3623387    1.4436702   -1.2684347 
N     4.2763572    1.0689036   -2.0467488 
H     3.9465075    0.4335864   -2.7668886 
C     3.6140985    2.4399479   -0.1669795 
H     3.8325420    1.8958197    0.7623584 
O     4.6438815    3.3224639   -0.4902600 
C     2.2492781    3.1130901   -0.0552539 
H     2.0534822    3.5182422    0.9437084 
O     2.1231575    4.1018920   -1.0366451 
H    -0.5589876    1.3604985   -1.1805816 
H     0.1123974    2.8698162   -1.8369848 
H    -0.5944791    2.8438873   -0.2152309 
H     5.1393907    2.8898383   -1.2009636 
H     3.0126456    4.4465903   -1.1835305 
N     2.7755511    3.4705258   -4.1851198 
N     1.8949142    2.8618647   -4.3865106 
