20
Energy = -585.4807709822
C     0.7196797    0.6636109   -0.0482080 
N     0.3255670    1.5236819    1.0408350 
C     1.1026517    1.7366092    2.0010618 
O     2.3480531    1.2557679    2.1814469 
C     2.9777046    1.9690826    3.2611088 
C     2.1276703    3.2041356    3.5121698 
H     2.1810080    3.5231358    4.5584602 
O     2.5145351    4.2334349    2.6445233 
C     0.7479541    2.6802176    3.1193654 
H     0.3218848    2.1073401    3.9548016 
O    -0.1265246    3.6785640    2.6941460 
H     1.7754862    0.3821167   -0.0258157 
H     0.5044952    1.1655922   -0.9929817 
H     0.1170160   -0.2477088   -0.0250878 
H     3.9866381    2.2314143    2.9480741 
H     3.0172247    1.3174919    4.1371531 
H     1.7020224    4.6888232    2.3915673 
H    -0.5123918    3.3367491    1.8728202 
N     2.9866142    3.3342150   -0.6617957 
N     3.9043218    3.0108891   -0.1723036 
