21
Energy = -528.5144591501
C     0.9129154    0.9110586   -0.0078384 
C     1.8695386    0.2159853   -0.9738660 
H     2.0109869    0.8581868   -1.8499686 
C     3.2504509    0.0109014   -0.3490520 
O     3.2268793   -0.7619056    0.8234786 
C     1.2954577   -1.0764215   -1.4687051 
N     1.4661521   -2.2073938   -0.7928557 
N     0.8236068   -3.1419206   -1.4953500 
H     0.8343307   -4.0925082   -1.1746465 
C     0.2389678   -2.6517061   -2.6031056 
C     0.5209645   -1.3072955   -2.6240817 
H     1.3015846    1.8914173    0.2756318 
H     0.7977167    0.3175790    0.8991283 
H    -0.0712973    1.0481636   -0.4584904 
H     3.6635497    0.9849858   -0.0745497 
H     3.9189682   -0.4305733   -1.1012096 
H     2.7740639   -1.5847305    0.5958917 
H    -0.3152712   -3.2811514   -3.2796532 
H     0.2185182   -0.5896501   -3.3680220 
N     3.9409310   -2.4783224   -3.3247121 
N     3.6581195   -3.4938691   -3.0500845 
