21
Energy = -528.5192787713
C     0.9514291    1.0496052    0.6861673 
C     0.0128804    0.1902738   -0.1292291 
H    -0.0781429    0.6225840   -1.1379871 
O     0.5758455   -1.0989800   -0.2114762 
C    -1.3878361    0.1456669    0.4868659 
C    -2.3477351   -0.6352686   -0.3437369 
N    -2.1092013   -1.9132046   -0.6232624 
N    -3.1122627   -2.2937507   -1.4160170 
H    -3.1360521   -3.2363098   -1.7592857 
C    -3.9947773   -1.3076034   -1.6536069 
C    -3.5318799   -0.2056211   -0.9747153 
H     1.9486374    1.0344658    0.2453057 
H     1.0246830    0.6657824    1.7059312 
H     0.6032206    2.0835698    0.7221370 
H    -0.1229165   -1.7082333   -0.4866067 
H    -1.7646520    1.1633159    0.6069479 
H    -1.3062443   -0.2967860    1.4844194 
H    -4.8650770   -1.4589374   -2.2706811 
H    -3.9813452    0.7722149   -0.9352922 
N    -1.0767282   -1.4476080   -3.8124124 
N    -0.8986565   -0.3821884   -3.6713508 
