21
Energy = -528.5123864882
C     0.9689556    0.0614749   -1.2604635 
C     1.1153380    1.4328933   -1.8790980 
H     2.1710497    1.5969547   -2.1442819 
O     0.3094477    1.4807505   -3.0285756 
C     0.7204737    2.5163334   -0.8817716 
N     0.9632628    3.8466481   -1.3931126 
C     1.7370727    4.8140774   -0.8667015 
C     1.6613513    5.8960461   -1.7153510 
C     0.8070872    5.4728534   -2.7414967 
N     0.3880925    4.2314846   -2.5365447 
H     1.6398256   -0.0627507   -0.4083456 
H     1.2070844   -0.7001193   -2.0027296 
H    -0.0594397   -0.0992133   -0.9302894 
H     0.1871402    2.4149850   -3.2585963 
H     1.2972820    2.4138146    0.0376145 
H    -0.3417133    2.4149945   -0.6435149 
H     2.2721450    4.6640338    0.0565464 
H     2.1511035    6.8482159   -1.6046356 
H     0.4801808    6.0106285   -3.6174761 
N     3.7577098    3.3873880   -3.5017719 
N     3.2396218    3.6636699   -4.4194753 
