21
Energy = -528.5205161795
C     0.3702611    1.0430577    0.3202594 
C     1.2583376    0.2999758    1.2480669 
C     1.8425174   -0.9438358    1.1622465 
C     2.6018117   -1.0900718    2.3414843 
C     3.4448820   -2.2442600    2.7734256 
C     4.6478298   -1.8262267    3.6077512 
O     4.2859672   -1.2581753    4.8405854 
N     2.4870607   -0.0089030    3.1011257 
N     1.6762926    0.8115981    2.4240510 
H     1.4574886    1.7123189    2.8090611 
H    -0.5662706    1.3311661    0.8032883 
H     0.1258104    0.4207559   -0.5385957 
H     0.8500126    1.9526378   -0.0496190 
H     1.7408418   -1.6478500    0.3527432 
H     3.7871066   -2.7837339    1.8861132 
H     2.8391728   -2.9448486    3.3580127 
H     5.2699970   -1.1360898    3.0201731 
H     5.2565550   -2.7048999    3.8319745 
H     3.6846285   -0.5309626    4.6329962 
N     4.2638019    1.9125757    0.8427193 
N     4.8567532    1.0031411    0.7522880 
