21
Energy = -528.5100369415
C     0.3264671    1.3498323    0.6962005 
C     0.5856084   -0.0114411    1.2408424 
C     1.4038217   -0.3644774    2.2928728 
N     1.3140167   -1.7011645    2.4471078 
C     2.0201790   -2.5411752    3.3907717 
C     1.1028086   -3.5672895    4.0323825 
O     0.6706320   -4.5458961    3.1297703 
N     0.4899941   -2.2490048    1.5520593 
C     0.0407001   -1.2374993    0.8221845 
H    -0.7158990    1.6454976    0.8369175 
H     0.5366281    1.3988629   -0.3741726 
H     0.9503243    2.0954057    1.1897741 
H     2.0291419    0.2345134    2.9354607 
H     2.4456396   -1.8850891    4.1513945 
H     2.8369590   -3.0557169    2.8767404 
H     0.2587466   -3.0445012    4.5032846 
H     1.6583597   -4.0760468    4.8238105 
H     0.3367973   -4.0671943    2.3561888 
H    -0.6613889   -1.4234216    0.0234761 
N    -1.4776728   -0.7870391    4.1852564 
N    -2.2053706   -0.7850493    3.3745204 
