21
Energy = -528.5106303161
C     1.4245390    1.3669089   -1.1598980 
N     1.9345862    2.0810594   -0.0212775 
C     1.2445249    2.5981584    1.0106457 
C     2.1622954    3.1839988    1.8532344 
C     3.4054706    2.9710085    1.2336506 
C     4.7726391    3.3365008    1.7031999 
C     5.6751984    2.1128823    1.8333241 
O     5.9111271    1.4811548    0.6019648 
N     3.2460309    2.3000280    0.0939651 
H     1.6994648    1.8837630   -2.0791888 
H     0.3403842    1.3157417   -1.0846538 
H     1.8315720    0.3560305   -1.1819312 
H     0.1714622    2.5143038    1.0671037 
H     1.9654154    3.6932324    2.7815832 
H     4.6979470    3.8391776    2.6699423 
H     5.2343343    4.0377291    1.0021266 
H     5.2307667    1.4153886    2.5581803 
H     6.6475058    2.4177048    2.2276084 
H     5.0674789    1.4560416    0.1292846 
N     2.6409317   -0.6680558    1.4866006 
N     3.0424204   -0.4575431    2.4770348 
