20
Energy = -544.5550165481
N     1.5605608    0.8254065    0.2394046 
C     0.9499004   -0.3118277    0.7392792 
C    -0.2077608   -0.5041797    1.4637971 
C    -0.2525718   -1.8912193    1.7178321 
C    -1.2985653   -2.6641101    2.4512487 
C    -1.5561047   -4.0372937    1.8447458 
O    -0.4441879   -4.8899785    1.9372809 
N     0.7954939   -2.5047056    1.1900754 
N     1.5148653   -1.5274116    0.6060284 
H     2.3986547   -1.7446361    0.1842214 
H     1.0027174    1.6522164    0.3760248 
H     1.8363851    0.7495697   -0.7285536 
H    -0.9301255    0.2437894    1.7455074 
H    -2.2274681   -2.0876664    2.4568018 
H    -0.9959845   -2.7931260    3.4957309 
H    -1.8755752   -3.9136568    0.7999174 
H    -2.3735095   -4.5236802    2.3819238 
H     0.2981860   -4.4043122    1.5525307 
N    -1.0908225   -2.2224871   -1.7315628 
N    -0.3051626   -1.5239335   -2.0171968 
