16
Energy = -583.1229701693
C     0.7368377    0.4616325    0.4423631 
C    -0.3535911    1.1719756    0.9347538 
C    -1.5563500    1.0178755    0.2660435 
N    -1.7264389    0.2465197   -0.7963025 
C    -0.6667660   -0.4180737   -1.2404917 
C     0.5919323   -0.3565446   -0.6701413 
O    -0.8523310   -1.1963335   -2.3174906 
O    -2.6321317    1.6870498    0.7101280 
O     1.9521274    0.5340009    1.0097320 
H    -0.2845414    1.8184195    1.7985482 
H     1.4224396   -0.9174423   -1.0707979 
H    -1.7789697   -1.1059957   -2.5626104 
H    -3.3590627    1.4521627    0.1240060 
H     1.9262735    1.1343701    1.7597401 
N     2.1536605    2.6514989    3.3915380 
N     2.2865636    3.4361106    4.1344763 
