17
Energy = -600.3184542530
O     0.5430837    0.1166673   -0.3625964 
C    -0.2866591   -1.0042525   -0.6824728 
C    -0.9970321   -0.7762584   -1.9679654 
C    -1.4020127    0.4605467   -2.4301195 
O    -1.2691668    1.6699106   -1.8828648 
N    -1.9681904    0.2884881   -3.6305154 
H    -2.3561786    0.9911650   -4.2306477 
N    -1.9754456   -1.0187308   -4.0093628 
C    -1.3875044   -1.6391210   -3.0113736 
O    -1.1924978   -2.9683269   -3.0195715 
H     1.2496275    0.1431975   -1.0132585 
H    -0.9755542   -1.0914023    0.1612951 
H     0.2966332   -1.9290462   -0.7196158 
H    -0.6709929    1.5490528   -1.1274228 
H    -1.5444954   -3.3025974   -3.8500860 
N     1.7029439   -0.0662511   -4.5051943 
N     1.8255887    0.0328397   -3.4274494 
