16
Energy = -505.0679219344
N     1.2065951    1.1227650   -0.1478225 
H     1.0845244    1.8327301    0.5530688 
C     1.9876793    0.0058935   -0.0809298 
N     1.9435334   -0.7341815   -1.1519280 
C     1.0766603   -0.0718253   -1.9930114 
C     0.6005936    1.1026418   -1.3777296 
N    -0.2423945    1.9865801   -1.8769194 
C    -0.6625141    1.6911255   -3.1035192 
C    -0.2672866    0.5588838   -3.8231328 
C     0.6195179   -0.3518095   -3.2725353 
H     2.5777506   -0.2155712    0.7964311 
H    -1.3578489    2.3945004   -3.5493964 
H    -0.6655797    0.4053725   -4.8176530 
H     0.9422930   -1.2364826   -3.8069287 
N    -0.0781520    3.9057589    0.9634108 
N    -0.7240449    4.7660509    0.7961807 
