15
Energy = -521.0997130294
N     1.1603597    1.0334734   -0.9031969 
H     0.3621814    1.3593597   -1.4210411 
C     1.3821737   -0.2224838   -0.4028158 
N     2.5135796   -0.3487652    0.2258698 
C     3.0881160    0.9009868    0.1425866 
C     2.2514152    1.7809598   -0.5633489 
N     2.5016865    3.0514191   -0.8221711 
C     3.6729885    3.4447064   -0.3319264 
N     4.5598229    2.7187255    0.3529334 
C     4.2792273    1.4440738    0.5972032 
H     0.6595184   -1.0140332   -0.5371441 
H     3.9413697    4.4807011   -0.5094513 
H     5.0060069    0.8614274    1.1546189 
N    -0.5589114    4.3162130   -2.9194253 
N    -0.4892973    3.3020183   -2.5298576 
