15
Energy = -607.1076450853
O     1.0593820   -0.1594985   -0.1087911 
C     1.5946509    0.1245436   -1.3069312 
N     2.7965443    0.6648073   -1.3402928 
C     3.3372128    0.9503728   -2.5229969 
C     2.7029477    0.7096132   -3.7268761 
O     3.2987392    1.0192351   -4.9020480 
C     1.4364094    0.1384756   -3.6502404 
F     0.7976943   -0.1074135   -4.8021538 
C     0.8507396   -0.1675065   -2.4497064 
H     1.7078887    0.0988496    0.5570024 
H     4.3269166    1.3943321   -2.5262666 
H     2.7093798    0.7827587   -5.6225440 
H    -0.1328661   -0.6111002   -2.3948987 
N     4.3074509    0.8902854    2.4075847 
N     3.3411610    0.5888914    2.0066484 
