18
Energy = -547.2199386731
C     1.0447079    0.7793890   -0.0197683 
C     1.1373239   -0.7107264    0.0103765 
C     1.2872072   -1.4482333    1.1748244 
C     1.3550927   -2.8313389    1.1569414 
C     1.2708846   -3.4490947   -0.0815247 
O     1.3316740   -4.7884561   -0.1607622 
N     1.1314121   -2.7813324   -1.2165223 
C     1.0677890   -1.4618108   -1.1638207 
O     0.9217773   -0.8117188   -2.3313902 
H     1.8287237    1.2152730   -0.6428865 
H     1.1374911    1.1906679    0.9854431 
H     0.0902888    1.1081017   -0.4375908 
H     1.3472204   -0.9238557    2.1222533 
H     1.4682787   -3.4197006    2.0556787 
H     1.2513124   -5.0142499   -1.0929664 
H     0.8926908   -1.4847413   -3.0192130 
N    -2.1265984   -1.6727273   -0.0842888 
N    -2.0889932   -2.7095714    0.2486957 
