16
Energy = -583.1051530038
O     1.1820818   -0.0795174    0.6388676 
C     0.9458672    1.2455777    0.4122812 
C     0.0706540    1.7612419   -0.5128297 
N    -0.1183970    3.0717371   -0.6904841 
C     0.5761713    3.8968814    0.0643885 
O     0.3832143    5.2176354   -0.1182589 
C     1.4918082    3.4932476    1.0335797 
C     1.6770984    2.1395010    1.2080761 
O     2.5416747    1.6753099    2.1233207 
H     0.6210653   -0.6206732    0.0784230 
H    -0.5107281    1.0956085   -1.1459104 
H    -0.2739201    5.2947047   -0.8179347 
H     2.0368918    4.2124175    1.6279149 
H     2.5203192    0.7127076    2.0882006 
N    -1.2165418   -2.6950870   -1.7126444 
N    -0.6064791   -2.0089238   -1.1277073 
