15
Energy = -607.1261614853
O     1.1492375    0.6089842    0.6746047 
C     1.2453872    1.0305204   -0.5948490 
C     2.5034962    0.9994313   -1.1920119 
C     2.5650032    1.4393109   -2.4943340 
F     3.7433084    1.4305006   -3.1090873 
N     1.5609099    1.8786187   -3.2141720 
C     0.3761458    1.8968654   -2.6221559 
O    -0.6594628    2.3428903   -3.3460155 
C     0.1497643    1.4868952   -1.3166901 
H     0.2419405    0.6932947    0.9814298 
H     3.3769356    0.6517220   -0.6620807 
H    -0.3076408    2.5762996   -4.2119780 
H    -0.8454021    1.5267304   -0.8955423 
N    -2.5571959    1.3980089    2.5967986 
N    -1.6756933    1.1169585    2.0231112 
