18
Energy = -580.4463282340
C     1.1934426    0.3577893   -0.1147159 
N    -0.0638605   -0.3270329   -0.0969278 
N    -0.4147141   -1.1416700   -1.1111236 
C    -1.6237803   -1.5636167   -0.8000641 
O    -2.3204006   -2.4298202   -1.5632230 
C    -2.0828565   -1.0144376    0.4020912 
O    -3.2743915   -1.1729506    1.0422998 
C    -1.0482813   -0.2064048    0.8264239 
N    -0.9044558    0.5740756    1.9696356 
H     1.4565875    0.6244680    0.9079886 
H     1.1555962    1.2653313   -0.7243885 
H     1.9485380   -0.3102902   -0.5248892 
H    -1.7732589   -2.6508584   -2.3220206 
H    -3.7231787   -1.9295986    0.6610355 
H    -1.5938057    0.3182589    2.6615300 
H    -0.9877679    1.5646099    1.7799841 
N    -2.0394957    1.7934353   -2.0902330 
N    -1.7257529    2.1721633   -1.1180963 
