18
Energy = -547.2105216442
C     1.2137115    0.3884489   -0.5967249 
C     2.5016517   -0.2182646   -0.1406691 
C     2.7191035   -1.5908589   -0.1898698 
O     1.7760346   -2.4378779   -0.6457326 
C     3.9338886   -2.1298154    0.2269054 
C     4.8970643   -1.2566075    0.6790744 
N     4.7278243    0.0634362    0.7421197 
C     3.5654825    0.5446717    0.3438526 
O     3.4119839    1.8813219    0.4100815 
H     0.3566976   -0.0157277   -0.0470110 
H     1.0428713    0.2150596   -1.6647085 
H     1.2206338    1.4641455   -0.4400714 
H     0.9973453   -1.9391958   -0.9050822 
H     4.1016027   -3.1967161    0.1853525 
H     5.8609221   -1.6294032    1.0090035 
H     4.2421252    2.2194094    0.7634788 
N     5.2617210   -0.5208553   -2.7848741 
N     4.2662531   -0.1263124   -2.9860299 
