17
Energy = -600.2883219701
C     0.4067791    0.9685747   -0.3924409 
O    -0.2896169    0.6497499    0.8040732 
C    -0.0275821   -0.5557297    1.3204703 
C     0.3711106   -1.7665902    0.7932054 
O     0.6384877   -2.0681540   -0.5089808 
C     0.4055467   -2.6208951    1.9092338 
O     0.7581781   -3.9173435    1.8336927 
N     0.0593321   -2.0216716    3.0263292 
N    -0.1920317   -0.7502907    2.6461034 
H     0.1328392    1.9922692   -0.6360310 
H     0.1182196    0.3020772   -1.2056023 
H     1.4862760    0.9007315   -0.2374637 
H     0.9969804   -2.9578743   -0.5323540 
H     0.7104374   -4.2923967    2.7193320 
H    -0.5158829   -0.0748971    3.3110502 
N     0.3254735   -4.7290610    5.9367580 
N     0.5039514   -4.7905136    4.8646725 
