14
Energy = -623.1498004041
O     1.4860786   -0.4009544    0.0028164 
C     1.0480641   -1.6653507   -0.0340061 
C     0.2675736   -2.1051110   -1.0942286 
N    -0.1673467   -3.3595449   -1.1308038 
C     0.1504359   -4.1749382   -0.1533904 
O    -0.2754205   -5.4469357   -0.1647849 
C     0.9377103   -3.7066225    0.9017539 
F     1.2634309   -4.5222744    1.8914257 
N     1.3741379   -2.4840684    0.9587270 
H     2.0041712   -0.2877613    0.8084815 
H    -0.0013856   -1.4424734   -1.9065275 
H    -0.7941707   -5.5565311   -0.9689128 
N     3.6214031   -0.3433728    3.6378774 
N     3.1382630   -0.1437389    2.6830123 
