21
Energy = -586.4513298677
C     1.0549475    0.9031695    0.1252044 
C     0.8286557    2.2744830    0.3044263 
C     1.9186729    3.1073995    0.3322906 
N     3.1859659    2.6969395    0.2062684 
C     3.3758939    1.4052187    0.0425942 
C     2.3532051    0.4513579   -0.0111253 
O     4.6243452    0.9333697   -0.0800439 
C     5.6760851    1.8794672    0.0094704 
O    -0.0309709    0.1145296    0.1018736 
C     0.1671484   -1.2705711   -0.0703801 
H    -0.1796431    2.6477444    0.4147921 
H     1.7803802    4.1753345    0.4675741 
H     2.6103245   -0.5877475   -0.1487060 
H     6.5933760    1.3059842   -0.1033804 
H     5.6622872    2.3876538    0.9745773 
H     5.5973515    2.6296924   -0.7782861 
H    -0.8219761   -1.7218922   -0.0600959 
H     0.7659790   -1.6893362    0.7434195 
H     0.6548246   -1.4856699   -1.0254214 
N     2.2332928    1.5797648    3.5976061 
N     3.2940682    1.4843184    3.3680566 
