16
Energy = -542.1344648986
N    -1.0494771    1.3343595    0.3227424 
C    -0.9192361    0.3679723   -0.6530335 
N    -0.0983237    0.4327290   -1.6798766 
C    -0.4203693   -0.6840286   -2.3739971 
C    -1.3977774   -1.4436884   -1.8032945 
N    -1.7214755   -0.7464923   -0.6539606 
H    -2.5015658   -0.8912242   -0.0410552 
C    -1.5476870   -2.6006442   -2.6131446 
C    -0.6454902   -2.4179106   -3.6206716 
O     0.0610393   -1.2516233   -3.4905492 
H    -0.3778850    2.0722092    0.1760857 
H    -0.9853940    0.9776058    1.2650211 
H    -2.2118200   -3.4428344   -2.5123636 
H    -0.4047972   -3.0111367   -4.4849706 
N     1.4120980   -2.3074291   -0.0333543 
N     1.0582421   -1.6829446    0.7864433 
