19
Energy = -560.5985642417
C     0.6755586    0.2894094    0.7730879 
O    -0.6731950    0.0940879    0.3989275 
C    -1.0572529   -1.1858606    0.2584429 
C    -2.3259052   -1.5937069   -0.0480426 
N    -3.5492407   -0.9581489   -0.2746471 
N    -2.2215080   -2.9859511   -0.0790880 
H    -2.9636321   -3.6048375   -0.3504426 
C    -0.9493991   -3.3105891    0.2108817 
N    -0.4824551   -4.6143432    0.1980465 
N    -0.2124012   -2.2427983    0.4271106 
H     0.8133213    1.3664033    0.8447476 
H     1.3571470   -0.1259154    0.0277091 
H     0.8906218   -0.1794686    1.7360550 
H    -3.8379722   -0.3861930    0.5066538 
H    -3.5426221   -0.3820686   -1.1046335 
H    -1.0083415   -5.2382309    0.7927620 
H     0.4923990   -4.6301915    0.4568695 
N    -2.3961220   -2.0422912    3.1866287 
N    -2.0765826   -3.0834232    3.1410411 
