18
Energy = -543.3203135277
O     0.2696982    1.2548344    0.0722654 
C     1.1288441    1.3951148    1.0852033 
N     0.9924577    0.9600034    2.2985455 
C     2.1437436    1.3670235    2.9554645 
C     2.9584014    2.0478424    2.1026532 
N     2.2897471    2.0625607    0.8911079 
H     2.6323523    2.4391775    0.0262579 
N     4.2271905    2.6132265    2.1944833 
C     4.3179192    4.0199539    2.5894053 
C     4.7014477    2.9387474    3.5203332 
H    -0.4835502    0.7589088    0.4130701 
H     2.3153004    1.1221876    3.9902564 
H     3.3847006    4.5349925    2.7903347 
H     5.0781722    4.5933850    2.0739641 
H     4.0323093    2.7512193    4.3529084 
H     5.7457011    2.7179625    3.7029866 
N    -2.5347105   -0.7693673    2.3969593 
N    -1.9922698   -0.3052081    1.5752798 
