15
Energy = -558.1940658522
O     0.6469959    0.4552872    1.0198184 
C     1.9648579    0.4952928    1.2049529 
N     2.6313957   -0.1598506    2.1263187 
C     3.9157296    0.2350316    1.8705771 
C     4.0196705    1.1039598    0.8241175 
N     2.7193658    1.2768375    0.3812477 
H     2.3694781    1.8401628   -0.3710957 
N     5.2881853    1.4947390    0.5699101 
C     5.9778181    0.8454778    1.4877782 
N     5.1987110    0.0638276    2.3076205 
H     5.5248271   -0.5071773    3.0648873 
H     0.2835883   -0.1387496    1.6871178 
H     7.0472508    0.9003795    1.6100531 
N    -0.2291430   -1.4713034    3.3025466 
N    -0.2058421   -2.1265147    4.1714139 
