17
Energy = -505.2711795687
C     0.3256665    1.0686146    0.1449411 
O     1.1179894   -0.1008996    0.2208906 
C     2.3180593    0.0537182    0.8026363 
C     3.2471327   -0.9493316    0.9533444 
N     3.3094478   -2.3013532    0.6033544 
N     4.2981662   -0.3251411    1.5926259 
H     5.1524650   -0.7857773    1.8510324 
C     3.9693465    0.9655294    1.7790010 
N     2.7655959    1.2261578    1.3109173 
H     0.1084374    1.4629800    1.1397933 
H    -0.5969171    0.7731746   -0.3502007 
H     0.8282646    1.8478527   -0.4320736 
H     2.5607241   -2.8383087    1.0181346 
H     3.2739675   -2.4356016   -0.3982725 
H     4.6226214    1.6777494    2.2566400 
N     4.4242641    0.2704033   -1.7240760 
N     5.0048184    1.1275446   -1.3828179 
