25
Energy = -700.9120603371
C     1.1671963    0.8282588   -0.0302300 
C     1.7218622    1.8712109    0.7020493 
C     1.3678466    1.9520215    2.0446610 
N     0.5489338    1.1162329    2.6556756 
C     0.0335021    0.1307611    1.9295613 
C     0.3033152   -0.0701299    0.5878649 
O    -0.8071160   -0.7287881    2.5226455 
C    -1.1121766   -0.4986739    3.8855282 
O     1.9023215    2.9620798    2.7475267 
C     1.5415069    3.0570907    4.1131769 
O     1.4073492    0.6195252   -1.3350079 
C     2.2606796    1.5218926   -2.0017061 
H     2.3943043    2.6033436    0.2848017 
H    -0.1432624   -0.8857101    0.0394941 
H    -1.8041850   -1.2894188    4.1665253 
H    -1.5802724    0.4772390    4.0239968 
H    -0.2151858   -0.5464454    4.5049139 
H     2.0690761    3.9284797    4.4945184 
H     1.8422648    2.1639555    4.6630259 
H     0.4643634    3.1885013    4.2275400 
H     2.3140807    1.1811070   -3.0329871 
H     3.2638239    1.5164189   -1.5662212 
H     1.8602037    2.5391346   -1.9759739 
N    -2.0668006    2.7189250    1.2164873 
N    -1.5253633    3.2028927    0.4042849 
