18
Energy = -543.3552589777
O     0.2900386    0.3649324   -0.0274139 
C     1.2193202    1.2794016   -0.3507191 
C     1.4277906    1.8379413   -1.5828564 
N     2.5437245    2.6444460   -1.3793878 
C     3.2430747    3.7259814   -2.0226027 
C     4.3982151    3.9275752   -1.0239855 
N     3.8284521    3.4895432    0.2552236 
C     2.8551129    2.5667163   -0.0771998 
N     2.1005139    1.7356510    0.5959757 
H     0.3911966    0.1965037    0.9132389 
H     0.9583304    1.6880747   -2.5369065 
H     2.6072182    4.6151253   -2.0964865 
H     3.5996960    3.4628607   -3.0183629 
H     4.7229803    4.9658768   -0.9759636 
H     5.2472831    3.3007826   -1.3173011 
H     4.4879832    3.1904613    0.9557472 
N     4.6329394    0.2256117   -1.2116088 
N     3.9092222   -0.5110605   -1.5602991 
