16
Energy = -542.1255041612
N     0.8253382    0.5656144   -0.1051894 
C     1.0032826    0.2484045   -1.4375737 
C     0.7280568   -0.9434733   -2.0778711 
N     1.0337715   -0.6784610   -3.4065522 
C     1.1027969   -1.1851507   -4.6900147 
C     1.5591670   -0.1761912   -5.4555883 
O     1.7819196    0.9473615   -4.6970665 
C     1.4534477    0.6039646   -3.4449746 
N     1.4608306    1.2185858   -2.2992761 
H     0.9648449   -0.2007965    0.5316091 
H     1.3583132    1.3777969    0.1614171 
H     0.3490345   -1.8871703   -1.7325451 
H     0.8307212   -2.1897830   -4.9586517 
H     1.7710517   -0.0995431   -6.5055333 
N     4.1201662   -1.1499296   -1.8629838 
N     4.2237003   -0.8023699   -2.8906677 
