16
Energy = -505.0617787419
N     0.7276211    0.6505378   -0.0009260 
H     0.0922234    1.4049029   -0.1855916 
C     1.8756605    0.3732842   -0.6896755 
N     2.5088187   -0.6749299   -0.2567442 
C     1.7414761   -1.1406777    0.7875221 
C     0.6087963   -0.3147264    0.9641984 
C    -0.3182061   -0.5920638    1.9519018 
C    -0.0462279   -1.7113174    2.7184099 
C     1.1026066   -2.4735240    2.4713151 
N     1.9951469   -2.2109020    1.5291274 
H     2.1954477    0.9940688   -1.5139829 
H    -1.2004612    0.0139618    2.1185253 
H    -0.7181865   -2.0080920    3.5129872 
H     1.2977195   -3.3494137    3.0820529 
N    -0.5966242   -2.6981769   -1.0077086 
N    -0.6797551   -3.6044515   -0.4087373 
