16
Energy = -538.2970303832
N     0.7660033    0.7759936    0.0992806 
C     2.1266017    1.0293296    0.0712052 
N     2.8212321    1.5489654   -0.9053522 
N     4.1316810    1.7225992   -0.5053319 
C     4.1617589    1.2722781    0.7147523 
N     5.0417735    1.0800945    1.7408339 
H     6.0236234    1.2718313    1.7030452 
C     4.3506301    0.5198009    2.7989796 
C     3.0511779    0.3638721    2.4553469 
N     2.9430824    0.8354595    1.1527256 
H     0.3440714    1.1244692   -0.7496857 
H     0.5530444   -0.2084422    0.1976608 
H     4.8394935    0.2808856    3.7273974 
H     2.2202930   -0.0159876    3.0204619 
N     3.2364163   -1.8466394   -0.5686056 
N     4.3170111   -1.8079028   -0.7020710 
