16
Energy = -538.3049543394
N     0.6419279   -0.0689105   -0.1524943 
C     1.8509652   -0.1322470   -0.8145641 
N     2.6841495   -1.1291929   -0.8024374 
C     3.6740868   -0.7536362   -1.6983890 
C     3.3958972    0.4879916   -2.2205896 
N     4.4171003    0.8591190   -3.0100817 
H     4.5277516    1.6605729   -3.6004639 
N     5.3475045   -0.1262125   -3.0614640 
C     4.9195244   -1.0947823   -2.2638439 
N     2.2337897    0.9237397   -1.6377364 
H     1.6131799    1.6450110   -1.9553513 
H     0.5032557   -0.9040865    0.3960979 
H     0.5351076    0.7543533    0.4227343 
H     5.5222887   -1.9801661   -2.1391509 
N     3.7189357    1.3795428    1.2539459 
N     4.7571772    1.2034995    0.9743523 
