18
Energy = -547.1890296078
C     1.1662634    1.0007300    0.1092173 
C     0.2755433    1.7783989    0.8579263 
C    -0.8268766    2.2904104    0.2175823 
N    -1.1043428    2.0944117   -1.0746380 
C    -0.2509074    1.3589870   -1.7599297 
C     0.9039665    0.7811480   -1.2320481 
O    -0.5134627    1.1521268   -3.0591209 
O     2.2332295    0.5141280    0.7614265 
C     3.1483502   -0.2729045    0.0323055 
H     0.4638441    1.9610163    1.9063822 
H    -1.5388209    2.8977956    0.7670235 
H     1.5422131    0.1936535   -1.8739372 
H    -1.3391522    1.6133721   -3.2505122 
H     3.9258521   -0.5622691    0.7350993 
H     3.5941243    0.2957387   -0.7886096 
H     2.6684149   -1.1703530   -0.3680135 
N    -4.3369148    2.9742381   -3.3455766 
N    -3.3733000    2.5161275   -3.5622107 
