19
Energy = -622.3870226221
C     1.1600645    0.3474182   -0.1815141 
C     1.0743168   -0.8464237    0.5275154 
C     1.6579808   -1.9615518   -0.0573355 
N     2.2798835   -1.9607662   -1.2230702 
C     2.3421371   -0.8047121   -1.8767858 
C     1.8045151    0.3799175   -1.4157060 
O     2.9772077   -0.8161502   -3.0584777 
O     1.5990606   -3.1305137    0.6004339 
O     0.6557593    1.5108331    0.2532399 
C     0.0176056    1.5281187    1.5111977 
H     0.5918957   -0.9376855    1.4871067 
H     1.8840895    1.2955806   -1.9815209 
H     3.2831570   -1.7186791   -3.1950415 
H     2.0517538   -3.7764578    0.0481417 
H    -0.3027179    2.5545833    1.6721997 
H     0.7059904    1.2330852    2.3076485 
H    -0.8555041    0.8700224    1.5222863 
N     4.3281208    0.0983039    1.2996272 
N     4.8989627   -0.3536528    0.4891636 
