13
Energy = -817.0053018448
C     0.8446746    0.4819871   -0.4312101 
C     1.2246938   -0.0712116    0.7789981 
C     0.6136751    0.4114346    1.9267760 
N    -0.3082328    1.3671083    1.9326597 
C    -0.6546323    1.8806713    0.7580256 
C    -0.1143905    1.4793626   -0.4547025 
Cl    1.5667353   -0.0604343   -1.8966015 
H     1.9742184   -0.8489205    0.8274260 
H     0.8896507    0.0018561    2.8934160 
H    -1.4074827    2.6624133    0.7768464 
H    -0.4281058    1.9314611   -1.3853919 
N     2.9825359    2.9104773    1.3465119 
N     2.3748311    3.6693936    0.8547997 
