13
Energy = -456.7297888988
C     0.6099827    0.5066837   -0.1434597 
C     1.9330731    0.6471909   -0.5081814 
C     2.8776584    0.5510360    0.5031323 
N     2.5820235    0.3353949    1.7800073 
C     1.2974293    0.2073903    2.0926430 
C     0.2619806    0.2838648    1.1727937 
F    -0.3417531    0.5904428   -1.0713961 
H     2.2118977    0.8257854   -1.5376293 
H     3.9311983    0.6566066    0.2645075 
H     1.0722405    0.0350035    3.1402777 
H    -0.7735643    0.1769122    1.4653423 
N     1.9358833    3.8548409    1.1201267 
N     1.1736413    3.6799791    1.8786836 
