15
Energy = -710.4403499393
C     0.7095522    0.0391503   -0.1018591 
C     1.7572692    0.0914567   -1.0157753 
N     1.8189592    1.0190104   -1.9585915 
C     0.8258006    1.9005606   -1.9916294 
C    -0.2159861    1.8412129   -1.0779757 
N    -0.2795097    0.9161989   -0.1320572 
C    -1.3615853    2.8265298   -1.1052848 
F    -1.1978373    3.7318564   -2.0771849 
F    -2.5236310    2.2079730   -1.3210998 
F    -1.4611466    3.4859312    0.0491540 
H     0.6715077   -0.7271790    0.6647013 
H     2.5614852   -0.6359155   -0.9814939 
H     0.8595891    2.6643143   -2.7586014 
N    -0.9118632   -1.3787685   -2.8296005 
N    -1.2756380   -0.5125306   -3.3813536 
