13
Energy = -448.7603402477
C     0.9609429    0.2342587    0.1755046 
C     0.8750414   -0.2616942    1.4613139 
N    -0.1364255   -1.0473763    1.8342335 
C    -1.0477405   -1.3300195    0.9277102 
C    -0.9509693   -0.8216615   -0.3749239 
N     0.0448601   -0.0453309   -0.7500369 
O    -1.8977914   -1.1338550   -1.2642578 
H     1.7839371    0.8733053   -0.1265889 
H     1.6263512   -0.0278259    2.2062886 
H    -1.8797898   -1.9668553    1.2072403 
H    -1.6697973   -0.7013102   -2.0969004 
N    -0.6372047    0.8836180   -4.7662799 
N    -1.1236342    0.2982899   -3.9878504 
