16
Energy = -997.1754612511
C     0.8269023    0.7403844    0.1710968 
C    -0.4606882    0.7250127   -0.3432040 
N    -1.0410211    1.7870710   -0.8742880 
C    -0.3202027    2.8968596   -0.8890568 
C     0.9687245    2.9300267   -0.3657908 
N     1.5433045    1.8588950    0.1609962 
S    -1.4447190   -0.7553146   -0.2780810 
O    -0.5754136   -1.8406081    0.0137855 
O    -2.6015251   -0.4805148    0.5094292 
O    -1.8837286   -0.9170041   -1.7824071 
H     1.2733688   -0.1547957    0.5860051 
H    -0.7732459    3.7802855   -1.3252497 
H     1.5478614    3.8472542   -0.3781749 
H    -2.6465519   -0.3395782   -1.9493101 
N    -4.1983669    1.0064778   -1.9318171 
N    -4.9353982    1.7773854   -1.7160141 
