12
Energy = -373.5322821394
N     0.4597695    0.5253773   -0.4120376 
C    -0.7343130    0.9888234   -0.0685005 
C    -0.9260536    2.0183472    0.8440017 
C     0.2027933    2.5685041    1.4041538 
C     1.4228020    2.0407413    1.0011960 
N     1.5415241    1.0531308    0.1240191 
H    -1.5724448    0.5046200   -0.5568020 
H    -1.9218233    2.3632825    1.0920881 
H     0.1564673    3.3757970    2.1240671 
H     2.3592236    2.4213029    1.3932266 
N     0.1753766    3.4318707   -2.3446614 
N     1.1712134    3.7818637   -2.0749177 
