15
Energy = -412.8512042916
C     1.1359879   -0.1535126   -0.7454745 
C    -0.2545597   -0.0773868   -0.6646126 
N    -0.9194788   -0.8394447    0.2019390 
C    -0.2017222   -1.6478175    0.9682340 
C     1.1816855   -1.7095208    0.8826998 
N     1.8556698   -0.9608524    0.0197694 
C    -1.0448776    0.8533549   -1.5217916 
H     1.6778339    0.4648734   -1.4548685 
H    -0.7431511   -2.2675241    1.6762595 
H     1.7535551   -2.3746438    1.5210901 
H    -1.8280646    0.3071475   -2.0492742 
H    -0.4134910    1.3618722   -2.2496733 
H    -1.5367130    1.6063608   -0.9024995 
N     0.5329799    1.9404740    1.9225914 
N     0.6598078    1.2373297    2.7451527 
