14
Energy = -672.3807402974
N     0.4969487    1.3372197    0.0196748 
C     0.2460026    0.3615335    0.8501016 
N    -0.5124950   -0.6079060    0.2869066 
H    -0.8280161   -1.4517246    0.7360382 
C    -0.7617014   -0.2183509   -0.9958752 
C    -0.1282959    0.9871269   -1.1401553 
C     0.7270287    0.2834690    2.2613607 
F     0.2550945   -0.8380122    2.8416560 
F     2.0570592    0.2431995    2.3407274 
F     0.3153071    1.3170602    2.9931281 
H    -1.3502823   -0.8142788   -1.6719171 
H    -0.0908416    1.6172861   -2.0138263 
N    -1.4531297   -3.3550318    1.8515267 
N    -1.6226583   -4.1845195    2.5359443 
