15
Energy = -449.9558494496
N     0.5963497   -0.0730919    0.2146029 
C     0.1864886    0.2142046   -0.9873704 
N     0.2760670    1.5335896   -1.2694629 
H     0.0113824    1.9676835   -2.1342003 
C     0.7889169    2.1442880   -0.1409651 
C     0.9772268    1.1375739    0.7524677 
O    -0.2862410   -0.6153285   -1.9124502 
C    -0.4004526   -1.9662206   -1.4864849 
H     0.9620857    3.2049189   -0.0911278 
H     1.3626056    1.2063582    1.7565634 
H    -0.7928623   -2.5138213   -2.3395340 
H    -1.0810705   -2.0414920   -0.6372958 
H     0.5735341   -2.3597165   -1.1931494 
N    -2.6467651    0.7174420    0.4336964 
N    -2.4972382    1.6884259    0.9051997 
