12
Energy = -427.6713210632
N     0.3682083    0.6353155   -0.1927955 
C     1.3587738    1.3952548   -0.6042876 
N     1.9872999    0.8594067   -1.6858060 
H     2.7721887    1.2674190   -2.1664747 
C     1.3562821   -0.3082993   -1.9742873 
C     0.3586836   -0.4269751   -1.0388450 
C     1.7706187    2.6266610   -0.0374252 
N     2.1423776    3.6303562    0.3876709 
H     1.6588435   -0.9374003   -2.7938015 
H    -0.3612626   -1.2224621   -0.9356668 
N     5.0199307    3.8287705   -2.2932316 
N     4.3584917    2.9667782   -2.3606970 
