16
Energy = -488.0343032803
N     0.7806363    0.8745800    0.0369398 
C    -0.0201243    1.7114489    0.6947063 
N     0.2554789    2.9416308    1.0830132 
C     1.4817899    3.3786139    0.7723527 
C     2.4010378    2.6151422    0.0951116 
C     1.9841404    1.3291315   -0.2600165 
O     2.8409634    0.5565099   -0.9210104 
C     2.3950414   -0.7443507   -1.2816976 
H    -1.0094734    1.3326090    0.9332805 
H     1.7269939    4.3893539    1.0830036 
H     3.3888017    2.9731462   -0.1579476 
H     3.2297911   -1.2000893   -1.8079545 
H     1.5199368   -0.6888952   -1.9295189 
H     2.1380441   -1.3263941   -0.3965051 
N    -0.6919694    2.9943177   -2.4180525 
N     0.3221648    3.2897712   -2.6851557 
