13
Energy = -448.7722062927
N     0.8673032    0.6968221    0.1694281 
C     0.4422105   -0.5497327    0.0662733 
N     1.1342223   -1.6011326   -0.3613173 
C     2.3862775   -1.3722430   -0.7228013 
C     2.9563898   -0.1018473   -0.6623279 
C     2.1343301    0.9012092   -0.2020032 
O     3.1130042   -2.3994497   -1.1565525 
H    -0.5846625   -0.7431753    0.3618656 
H     3.9804567    0.0704068   -0.9612303 
H     2.5013812    1.9198862   -0.1242798 
H     2.5499140   -3.1844121   -1.1284371 
N     0.3529744   -5.5928140   -1.0947773 
N     1.2206237   -4.9379320   -1.1535188 
