12
Energy = -373.5613252222
C     0.6614080    1.0062087   -0.3892299 
C     0.2849138    1.6793591    0.7655463 
N    -0.9860158    1.7933746    1.1291309 
C    -1.8761785    1.2284415    0.3237510 
C    -1.4997076    0.5558205   -0.8313700 
N    -0.2287149    0.4400648   -1.1938914 
H     1.7066563    0.9250928   -0.6695830 
H     1.0286750    2.1373648    1.4095508 
H    -2.9217126    1.3130514    0.6019472 
H    -2.2438878    0.1023726   -1.4780674 
N    -0.3226790    4.1124087   -1.6766049 
N    -1.3464662    3.8392355   -1.9302889 
