15
Energy = -710.4106406116
N     0.5279131   -0.2630653    0.1538100 
C     0.7458830   -1.2578111   -0.6918756 
C     1.8031664   -2.1514472   -0.5578764 
C     2.6470945   -1.9740511    0.5108987 
C     2.3600781   -0.9099246    1.3567096 
N     1.3371153   -0.0871676    1.1789879 
C     2.0140299   -3.2347991   -1.5770372 
F     2.8742856   -4.1601843   -1.1463877 
F     0.8673638   -3.8511058   -1.8769200 
F     2.5036132   -2.7293573   -2.7160365 
H     0.0391255   -1.3399762   -1.5094348 
H     3.4917723   -2.6259533    0.6885827 
H     2.9775460   -0.6992365    2.2218502 
N     3.0081078    0.9768001   -2.0554233 
N     3.7853605    0.9493675   -1.2924505 
