15
Energy = -412.8205104112
N     1.1338858    0.5568853    0.0977705 
C     0.2039139    0.1856619    0.9623740 
C    -0.9870693   -0.4564018    0.6187554 
C    -1.1474436   -0.7081161   -0.7272919 
C    -0.1398604   -0.2946210   -1.5878600 
N     0.9633886    0.3216281   -1.1885830 
C    -2.0094001   -0.8080337    1.6470142 
H     0.4248921    0.4175103    1.9999088 
H    -2.0296512   -1.2091111   -1.1091428 
H    -0.2123583   -0.4608239   -2.6569849 
H    -1.5407275   -1.1396046    2.5743929 
H    -2.6755662   -1.5946223    1.2928184 
H    -2.6215547    0.0658228    1.8859638 
N    -1.3309770    3.0868381   -1.0824003 
N    -1.5859843    2.9007700   -0.0396791 
