16
Energy = -487.9847250921
N     0.7690254    0.8112523   -0.0439630 
C    -0.1817221   -0.0636409    0.2037821 
C    -0.7176378   -0.9208941   -0.7661238 
C    -0.1947232   -0.8153414   -2.0381183 
C     0.8058188    0.1345178   -2.2155291 
N     1.2747824    0.9213224   -1.2625239 
O    -1.6839342   -1.7569170   -0.3719208 
C    -2.2388103   -2.6158900   -1.3459456 
H    -0.5558620   -0.1012427    1.2208871 
H    -0.5287836   -1.4228049   -2.8673246 
H     1.2591201    0.2732366   -3.1910557 
H    -2.9981960   -3.2023281   -0.8355477 
H    -1.4796368   -3.2851952   -1.7600866 
H    -2.7027668   -2.0455067   -2.1554350 
N    -2.1383293    2.3201959   -1.3151409 
N    -1.6015421    2.7409148   -2.1647675 
