13
Energy = -448.7208719544
N     0.9536228    0.4324195    0.6960298 
C     0.3040732    1.0179936   -0.2940555 
C    -0.0702240    2.3631960   -0.2820449 
C     0.2729152    3.0864643    0.8410315 
C     0.9522133    2.4015399    1.8345951 
N     1.2850396    1.1173203    1.7707546 
O    -0.7289208    2.9552282   -1.2885443 
H     0.0684365    0.3817774   -1.1430807 
H     0.0213004    4.1347677    0.9333542 
H     1.2534815    2.9079763    2.7448084 
H    -0.8852407    2.3265044   -2.0001482 
N    -1.2374124    1.1819751   -3.8521229 
N    -1.4027459    0.6889034   -4.8084792 
