16
Energy = -997.1446094516
N     1.5509491    0.4578843    0.4396518 
C     2.0913906   -0.7538128    0.4571969 
C     1.7728469   -1.7505217   -0.4549142 
C     0.8401502   -1.4178888   -1.4087404 
C     0.3210844   -0.1299976   -1.3950174 
N     0.6724857    0.7718405   -0.4886787 
S     0.3255481   -2.5896895   -2.6252130 
O    -0.2487969   -1.8698458   -3.7153647 
O     1.3727121   -3.5323479   -2.7972584 
O    -0.8353191   -3.3554655   -1.8722471 
H     2.8150102   -0.9249982    1.2453708 
H     2.2338990   -2.7290474   -0.4272082 
H    -0.3902090    0.1964077   -2.1440617 
H    -1.6803735   -2.9177271   -2.0602408 
N    -3.3034110   -1.7248746   -2.5323585 
N    -4.0749137   -1.0459916   -2.8905158 
