15
Energy = -504.0735722758
N     0.2346691   -0.0461032   -0.5232458 
C    -0.9941895    0.4686204   -0.5505708 
N    -1.9713258    0.2093063    0.2956549 
C    -1.6449995   -0.6609303    1.2498830 
N    -0.4571216   -1.2387893    1.3953074 
C     0.4335509   -0.8880867    0.4780125 
O    -2.6155819   -0.9480768    2.0943199 
C    -2.3358170   -1.8963737    3.1183326 
H    -1.2146097    1.1706238   -1.3495146 
H     1.4184364   -1.3392169    0.5600196 
H    -2.0616529   -2.8586761    2.6866404 
H    -3.2576068   -1.9832031    3.6870162 
H    -1.5238809   -1.5488865    3.7566324 
N    -2.3292682   -2.9925027   -1.4107890 
N    -2.5054810   -3.3848693   -0.4098804 
