12
Energy = -464.8115594275
N     0.5001220    0.2704597   -0.5703033 
C    -0.1096246    0.7072233    0.5231459 
N     0.1672792    1.8244713    1.1754965 
C     1.1576858    2.5375072    0.6408439 
N     1.8467763    2.2138633   -0.4458525 
C     1.4684423    1.0743966   -0.9985773 
O     1.4931969    3.6678500    1.2346600 
H    -0.9115530    0.0937796    0.9237397 
H     2.0041334    0.7666520   -1.8919145 
H     0.9195846    3.7770023    2.0049732 
N    -0.8729570    3.9914448    4.6898812 
N    -0.2364369    4.0496820    3.8087472 
