15
Energy = -1013.210933052
N     1.1574020    1.2113641    0.2024320 
C     1.5713813    1.6012739   -0.9994710 
N     2.4072142    0.9320873   -1.7812484 
C     2.8284082   -0.2214707   -1.2813966 
N     2.4829875   -0.7193896   -0.1001644 
C     1.6547306    0.0533648    0.5812152 
S     1.0910530   -0.6004578    2.1637958 
O     0.8070834    0.4722390    3.0417257 
O     0.1304912   -1.6044338    1.8395650 
O     2.4015742   -1.2864316    2.6927369 
H     1.1920964    2.5492601   -1.3671216 
H     3.5122937   -0.8089915   -1.8857335 
H     2.5367348   -2.1277881    2.2263462 
N     2.5274451   -3.8727223    1.1499713 
N     2.3990000   -4.7007846    0.4556877 
