11
Energy = -389.6035296497
N     0.8521227    0.7013912   -0.2391692 
C    -0.3831624    0.2264803   -0.3338280 
N    -0.7287614   -1.0530176   -0.2833546 
C     0.2916405   -1.8859850   -0.1285836 
N     1.5678746   -1.5390694   -0.0219176 
C     1.7822551   -0.2313647   -0.0828400 
H    -1.1824877    0.9501796   -0.4638662 
H     0.0623246   -2.9467062   -0.0850316 
H     2.8115127    0.1055582    0.0009903 
N     1.9594186   -0.6431202   -4.0496221 
N     1.1038316   -0.7625051   -3.3860314 
