10
Energy = -442.7194827485
N     0.7354186    1.1223614    0.0308312 
C    -0.5257795    0.7408580    0.0901721 
N    -0.8952038    0.3310664    1.3210403 
N     0.1636957    0.4557106    2.0680308 
N     1.0966341    0.9192413    1.2858913 
H     2.0276624    1.1086337    1.6174779 
O    -1.3323595    0.7635164   -0.9572309 
H    -2.1968961    0.4416817   -0.6752261 
N    -4.8096163   -0.7153198    0.7958188 
N    -4.0106674   -0.3154437    0.1741583 
