10
Energy = -459.6931949120
N     0.7348563    0.4786070   -0.0424552 
C    -0.2002012   -0.2325935    0.5702072 
N     0.3190438   -1.2219672    1.3334109 
N     1.6018379   -1.1316645    1.1987223 
N     1.8133420   -0.1227609    0.3840108 
H     2.7440632    0.1654026    0.1110282 
C    -1.5910730    0.0205216    0.4373162 
N    -2.7180205    0.2199412    0.3347272 
N     4.7362857    0.8298740   -0.4516817 
N     5.7314727    1.1762184   -0.7245064 
