13
Energy = -991.1339071958
N     0.3139278    1.5836822    0.1647134 
C    -0.4096258    0.5142912   -0.0950513 
N    -0.7438307   -0.1745930    1.0141557 
N    -0.2216545    0.4748275    2.0051562 
N     0.3971340    1.5022220    1.4700049 
H     0.8936054    2.1802905    2.0270922 
S    -0.8504117   -0.0170142   -1.7204962 
O    -0.7498775    1.0931069   -2.5909069 
O    -0.1663747   -1.2437954   -1.9529626 
O    -2.3791608   -0.3148388   -1.5214774 
H    -2.4872811   -1.1962354   -1.1254549 
N    -2.1605100   -3.8457125    0.4740342 
N    -2.3809865   -2.9612191   -0.1200293 
