18
Energy = -857.9762164394
N     1.0763394    1.0561442   -0.3113428 
C     1.3688769    0.6947994   -1.5460187 
C     1.0829468   -0.5484804   -2.1394198 
C     0.4292570   -1.4528473   -1.3128471 
N     0.1235280   -1.1195575   -0.0713496 
C     0.4549171    0.0971935    0.3650184 
C     0.0475661   -2.8380876   -1.7982835 
F    -0.5777602   -3.5412184   -0.8661594 
F    -0.7575593   -2.7536515   -2.8628643 
F     1.1374310   -3.5192783   -2.1689966 
N     1.5310763   -0.5779650   -3.4383977 
C     2.0629608    0.5957184   -3.6186714 
N     1.9993276    1.4108123   -2.5209315 
H     2.3418154    2.3524005   -2.4283219 
H     0.1840920    0.3256394    1.3895981 
H     2.5211442    0.9280663   -4.5385719 
N     2.5528783    4.1679840   -0.9428859 
N     2.4902717    4.8094922   -0.0655633 
