19
Energy = -635.5633943897
N     0.8026402    0.5556712    0.0244077 
C    -0.3159439    1.2710723    0.0829677 
C    -1.5004965    0.9283404    0.7382086 
C    -1.4701858   -0.3089356    1.3956724 
N    -0.3728492   -1.0435016    1.3533167 
C     0.6896554   -0.5842844    0.6826633 
O    -2.5380177   -0.7266942    2.0544862 
C    -2.4417091   -1.9842189    2.7111303 
N    -2.4434833    1.9190935    0.5992094 
C    -1.8480035    2.8289452   -0.1152632 
N    -0.5643789    2.4983269   -0.4611481 
H     0.0843009    3.0461676   -0.9978057 
H     1.5613433   -1.2303693    0.6844983 
H    -3.4079616   -2.1355546    3.1850964 
H    -1.6469657   -1.9712252    3.4570836 
H    -2.2373835   -2.7805736    1.9953457 
H    -2.2919127    3.7636722   -0.4233390 
N    -0.0160906    2.5596911    3.2505021 
N    -0.0684419    3.5458629    2.7903417 
