19
Energy = -1144.711689773
N     0.9610352    1.2001009   -0.0027608 
C     1.5148175    1.0107252    1.1796672 
C     0.8335120    0.9605731    2.4000775 
C    -0.5395809    1.1337001    2.3260191 
N    -1.1253962    1.3234612    1.1634049 
C    -0.3585162    1.3452789    0.0676744 
S    -1.4996369    1.2099301    3.8339950 
O    -1.3429092    2.5433610    4.3153610 
O    -2.7787994    0.6287092    3.6527576 
O    -0.6710352    0.2154933    4.7269024 
N     1.7083532    0.7494259    3.4387762 
C     2.8779774    0.6768384    2.8653422 
N     2.8297339    0.8267529    1.5103596 
H     3.6009989    0.8051212    0.8628668 
H    -0.8776141    1.5013196   -0.8707982 
H     0.2807967    0.4588174    4.7146372 
H     3.8097424    0.5130274    3.3851606 
N     4.3284325    0.9181628   -1.3169546 
N     4.4353244    0.9949667   -2.3975696 
