20
Energy = -619.5190586370
N     0.8400823   -0.1489482    0.2876760 
C     0.9620622    1.1540014    0.1147051 
C     0.4150248    2.2042279    0.8799068 
C    -0.3695624    1.8329704    1.9801610 
C    -0.5155346    0.4612598    2.1869469 
C     0.0886161   -0.4607961    1.3415548 
O    -0.9840168    2.6467977    2.8405977 
C    -0.8681188    4.0513231    2.6698603 
N     0.7929195    3.4241299    0.3493760 
C     1.5285568    3.1239290   -0.6807779 
N     1.6694264    1.7836006   -0.8774884 
H     2.1893739    1.3160223   -1.5994191 
H    -1.1124071    0.1246731    3.0239441 
H    -0.0469226   -1.5201202    1.5331539 
H     0.1722581    4.3700030    2.7325238 
H    -1.4459980    4.4910675    3.4795858 
H    -1.2703114    4.3640602    1.7063427 
H     1.9951042    3.8457615   -1.3345833 
N     2.8810708   -0.8725808   -2.3379862 
N     2.9849376   -1.9562760   -2.3326919 
