17
Energy = -597.2374084133
N     0.4890991    0.3792486   -0.0670013 
C    -0.1497857   -0.1460631    0.9580749 
C     0.2570823   -0.1702365    2.3081637 
C     1.4794001    0.4298221    2.6088614 
C     2.1765939    0.9936657    1.5423081 
C     1.6513049    0.9437954    0.2515159 
C     1.9991580    0.4710335    3.9345408 
N     2.4412667    0.5182202    4.9961157 
N    -0.6750736   -0.8074954    3.0826143 
C    -1.6096786   -1.1567274    2.2419961 
N    -1.3583839   -0.7914669    0.9533431 
H    -1.9304775   -0.9529822    0.1419324 
H     3.1301861    1.4728176    1.7155556 
H     2.2069250    1.3875462   -0.5668076 
H    -2.5106840   -1.6871686    2.5127778 
N    -1.8053044   -0.3585299   -3.2246901 
N    -2.0552973   -0.6424936   -2.2038812 
