17
Energy = -380.7924935601
C     1.7269133    1.1892168    0.5209317 
C     0.6243336    1.2817836    1.3575596 
C    -0.4845234    2.0056520    0.9455881 
C    -0.4908894    2.6243026   -0.2951715 
C     0.6049666    2.5318837   -1.1485345 
C     1.7152118    1.8104709   -0.7182129 
C     0.5772544    3.1618575   -2.5071960 
H     2.6009151    0.6314127    0.8353836 
H     0.6312989    0.7968164    2.3258520 
H    -1.3489124    2.0899472    1.5934235 
H    -1.3622901    3.1880666   -0.6101727 
H     2.5816670    1.7333653   -1.3661692 
H     0.2066432    2.4531039   -3.2533114 
H     1.5735650    3.4759554   -2.8211957 
H    -0.0789524    4.0327802   -2.5290823 
N    -0.7224387   -0.4942827   -1.8967952 
N    -0.6232856   -1.1248680   -1.0139474 
