17
Energy = -678.3896697783
C     0.8436064    0.7424484   -0.0196777 
C     1.3725766    0.3245559    1.1926421 
C     1.1339717    1.0590753    2.3447078 
C     0.3658490    2.2110282    2.2876891 
C    -0.1603806    2.6260792    1.0726325 
C     0.0755551    1.8939067   -0.0823985 
C    -1.0450329    3.8361372    1.0172699 
F    -2.3364856    3.5078625    1.1976381 
F    -0.7382913    4.7298713    1.9650819 
F    -0.9683760    4.4631132   -0.1630002 
H     1.0289993    0.1707627   -0.9201994 
H     1.9729590   -0.5756122    1.2394564 
H     1.5466966    0.7350739    3.2917530 
H     0.1770244    2.7885752    3.1830317 
H    -0.3383894    2.2257051   -1.0255766 
N    -2.3438219   -0.0099109    2.2463384 
N    -2.4011662   -0.2518468    1.1856317 
