15
Energy = -416.6914463436
C     1.0153492    0.7469544   -0.1835805 
C     1.9153871   -0.3103068   -0.2094135 
C     3.0808306   -0.1877855   -0.9496400 
C     3.3482271    0.9744811   -1.6570861 
C     2.4414524    2.0286423   -1.6261723 
C     1.2705805    1.9122775   -0.8853603 
O     2.6490101    3.1868089   -2.2973430 
H     0.1005148    0.6646385    0.3910052 
H     1.7096278   -1.2188794    0.3415704 
H     3.7935457   -1.0031980   -0.9803835 
H     4.2619225    1.0649897   -2.2351078 
H     0.5756768    2.7422493   -0.8719897 
H     3.4856078    3.1419192   -2.7660382 
N     5.4170017    3.3916955   -3.9390167 
N     6.3384092    3.5829794   -4.4865622 
