9
Energy = -367.5311440118
N     1.4570275    0.7078770    0.2806083 
C     1.8477728    1.9465140    0.0449303 
N     0.8892745    2.8506750    0.3231055 
N    -0.1339536    2.1706844    0.7452055 
N     0.2325807    0.9133169    0.7080775 
H    -0.3836884    0.1648679    0.9888063 
H     2.8252543    2.2001938   -0.3281575 
N    -1.7198686   -1.5014172    1.6360796 
N    -2.3692019   -2.3075758    1.9730196 
