18
Energy = -965.1248529323
C     0.9631562    0.6623484    0.0276679 
C     0.8681191   -0.7224728    0.0126620 
C     1.8375472   -1.4540799   -0.6519115 
C     2.8826514   -0.8038245   -1.2948667 
C     2.9608691    0.5810447   -1.2812568 
C     1.9971760    1.3241273   -0.6174786 
S    -0.2575052    1.5947780    0.8871581 
O    -0.1497694    2.9625894    0.4843973 
O    -1.4912858    0.8906180    0.8417212 
O     0.2266070    1.4970965    2.3973317 
H     0.0370939   -1.2087506    0.5064880 
H     1.7740597   -2.5346726   -0.6737696 
H     3.6360217   -1.3809738   -1.8167437 
H     3.7695270    1.0856985   -1.7947585 
H     2.0265060    2.4057452   -0.6104378 
H     0.8501075    2.2172535    2.5699122 
N     2.2033075    3.8420210    2.5209484 
N     2.7999150    4.7283796    2.3135988 
