15
Energy = -412.8616975914
C     0.6818492    0.8547184   -0.4809757 
C    -0.2390981   -0.0992308   -0.0550648 
C    -0.2630263   -0.3917945    1.3135839 
N     0.5300426    0.1752086    2.2058714 
C     1.4073046    1.0799535    1.7839195 
C     1.5135755    1.4469056    0.4507603 
N    -1.1297613   -0.6983076   -0.9247835 
H     0.7427301    1.1240387   -1.5298956 
H    -0.9689645   -1.1301449    1.6885290 
H     2.0480493    1.5252349    2.5371172 
H     2.2424680    2.1870513    0.1449475 
H    -0.8462601   -0.7280576   -1.8891351 
H    -1.5182413   -1.5719344   -0.6121159 
N     3.2018377   -1.6978359    0.7008007 
N     2.3536013   -2.2942988    0.3662731 
