14
Energy = -428.9104182874
N    -0.1873067    0.2746521    0.5624848 
C    -0.2275577    0.8359214   -0.6371364 
N    -0.6424636    0.2947921   -1.7722940 
C    -1.0600204   -0.9701205   -1.6714907 
C    -1.0686584   -1.6703300   -0.4894772 
C    -0.6099318   -0.9880047    0.6464812 
N    -0.5484862   -1.5729748    1.8672885 
H     0.1177145    1.8646988   -0.6894356 
H    -1.4060240   -1.4387741   -2.5880455 
H    -1.4129690   -2.6953048   -0.4396946 
H    -1.0592725   -2.4176544    2.0401912 
H    -0.3662635   -0.9676501    2.6476735 
N    -3.6148741    1.2583744    0.0985021 
N    -3.7585214    0.2909430    0.5785329 
