14
Energy = -428.8638831035
N     0.7243659    0.3170659    0.0429461 
C     0.1609827    0.4718842   -1.1370123 
C    -1.1852924    0.1829584   -1.4122680 
C    -1.9154202   -0.2992796   -0.3373587 
C    -1.2535313   -0.4341557    0.8698683 
N     0.0252262   -0.1367102    1.0668096 
N    -1.7019718    0.3351596   -2.6661787 
H     0.8114802    0.8527525   -1.9194615 
H    -2.9635599   -0.5587618   -0.4300046 
H    -1.7780252   -0.8010568    1.7453881 
H    -1.1982337    0.9185447   -3.3100320 
H    -2.7010219    0.3672957   -2.7623221 
N    -1.3016336    3.0955729    1.2708175 
N    -1.1270090    3.3127895    0.2175831 
