14
Energy = -428.8985526483
C     0.9553707   -0.4238490    0.2051560 
C     1.8291989    0.1690426    1.1367587 
N     2.9130745    0.8212772    0.7325875 
C     3.1177223    0.8829912   -0.5784148 
C     2.2616570    0.2983336   -1.4928239 
N     1.1737349   -0.3594236   -1.0892627 
N     1.5783724    0.1284861    2.4783287 
H     0.0695198   -0.9568150    0.5404481 
H     4.0044978    1.4152257   -0.9078319 
H     2.4477084    0.3538664   -2.5586912 
H     0.9827615   -0.6010222    2.8252224 
H     2.3532445    0.3792455    3.0678123 
N     3.4142666   -2.6959614    0.5206608 
N     4.0738269   -2.4803250   -0.3194073 
