13
Energy = -444.9555054211
N     0.9534433   -0.2175154    0.5091487 
C     1.5834496    0.9473075    0.3874129 
N     2.7003793    1.3057529    0.9890226 
C     3.2170289    0.3672718    1.7962945 
N     2.6784289   -0.8440282    2.0040147 
C     1.5627208   -1.0617908    1.3357123 
N     4.3533013    0.6608636    2.4409299 
H     1.1330263    1.6811000   -0.2758121 
H     1.0949277   -2.0326190    1.4770882 
H     4.7719155    1.5609742    2.3062899 
H     4.7624648   -0.0166630    3.0567829 
N     4.6429570   -3.1198307    4.5106023 
N     4.9456075   -2.1175211    4.2118211 
