11
Energy = -422.8620108976
N     0.5115490    0.8586939   -0.7033924 
C    -0.3541519   -0.1020016   -0.9869901 
N     0.1546167   -1.0183852   -1.8426281 
N     1.3663460   -0.6244667   -2.1073990 
N     1.5480221    0.4714205   -1.4309630 
H     2.4145425    0.9852816   -1.4622184 
N    -1.6369069   -0.1496283   -0.5235058 
H    -1.7989925    0.3458782    0.3357320 
H    -2.0512774   -1.0650938   -0.5574385 
N     4.3230489    2.1644389   -1.6857764 
N     5.2369364    2.7362426   -1.8375224 
