17
Energy = -576.4352733224
N     0.9945277   -0.3045200    0.1451970 
C     1.6063126   -0.5244408    1.2863016 
C     2.6793705    0.2154780    1.8143317 
C     3.1057147    1.2723482    1.0334596 
N     2.5068015    1.5244042   -0.1323044 
C     1.5048284    0.7413018   -0.5122645 
N     3.0670848   -0.2955804    3.0344096 
C     2.2680071   -1.3089529    3.2289482 
N     1.3556911   -1.5000572    2.2188191 
H     0.6970292   -2.2522380    2.1138936 
N     2.3347939   -2.1616062    4.2895790 
H     3.9235624    1.9203981    1.3314023 
H     1.0440772    0.9743880   -1.4661923 
H     2.9303040   -1.8242097    5.0275153 
H     1.4696316   -2.5596369    4.6125579 
N    -1.5490153   -3.2589527   -0.2755356 
N    -0.9316546   -3.1375452    0.6128904 
