15
Energy = -521.0997129598
N     1.7536247    0.2686371   -0.6532833 
C     1.5321928   -0.8577434   -1.3059275 
C     0.3137389   -1.2535414   -1.8817048 
C    -0.7348849   -0.3595081   -1.7353668 
N    -0.5439291    0.7817551   -1.0840246 
C     0.6685766    1.0334968   -0.5850128 
N     0.4423654   -2.4865185   -2.4835299 
C     1.6837724   -2.8145218   -2.2770084 
N     2.3972656   -1.8795852   -1.5743263 
H     3.3641055   -1.9188537   -1.3001982 
H    -1.7238192   -0.5557263   -2.1377066 
H     0.7812024    1.9763900   -0.0605147 
H     2.1435683   -3.7319738   -2.6142253 
N     5.5798522    0.1242151    0.3554686 
N     5.0563684   -0.6721650   -0.1707830 
