17
Energy = -576.4411686780
N     0.6982813   -0.0294563    0.3808752 
C    -0.2643120   -0.7051680    0.9778731 
C    -1.3763447   -1.2958979    0.3595427 
C    -1.4389589   -1.1391904   -1.0161903 
N    -0.4967821   -0.4695715   -1.6580100 
C     0.5158073    0.0554370   -0.9404839 
N     1.4335140    0.7668323   -1.6453135 
N    -2.1712390   -1.9322926    1.2924262 
C    -1.5638786   -1.7338860    2.4209169 
N    -0.4050622   -0.9987969    2.3021622 
H     0.2235340   -0.7306741    3.0379085 
H    -2.2464664   -1.5592838   -1.6083439 
H     1.4295367    0.6458581   -2.6407883 
H     2.3037849    0.9732283   -1.1920423 
H    -1.9020974   -2.0933573    3.3813834 
N     1.3618247   -3.4425390   -0.0700358 
N     1.7295882   -3.1302832   -1.0469013 
