18
Energy = -560.4019108178
N     0.3794138    0.6598643   -0.2985047 
C     0.2879785    1.9463394    0.0022066 
C     0.5677549    3.0455091   -0.8143904 
C     1.0029709    2.8092666   -2.1229488 
C     1.1049716    1.4591725   -2.4690623 
C     0.7926889    0.4604999   -1.5478918 
N     1.3198063    3.8404942   -2.9496078 
N     0.3247881    4.2283487   -0.1530839 
C    -0.0848523    3.8592933    1.0274910 
N    -0.1254640    2.5040420    1.1865555 
H    -0.4212683    1.9949610    1.9997958 
H     1.4317487    1.1757856   -3.4621901 
H     0.8844417   -0.5765477   -1.8549637 
H     1.0241552    4.7569322   -2.6621614 
H     1.3641615    3.6725015   -3.9372390 
H    -0.3705959    4.5313887    1.8228181 
N    -2.6533775    2.0219849   -1.4142065 
N    -2.4998354    1.7313570   -2.4529048 
