18
Energy = -560.4025434091
N     1.0104659    0.6336096    0.4427687 
C     0.1524523    0.2848384    1.3711677 
C     0.1874989   -0.8564141    2.1983143 
C     1.2496023   -1.7254552    2.0243424 
C     2.1772499   -1.3864733    1.0448503 
C     2.0234447   -0.2254332    0.2926589 
N    -0.8867846   -0.8581718    3.0625564 
C    -1.5505663    0.2270966    2.7666340 
N    -0.9817142    0.9653827    1.7638166 
H    -1.3531749    1.7878359    1.3242619 
N    -2.7331830    0.5985115    3.3401777 
H     1.3504593   -2.6220080    2.6228833 
H     3.0320167   -2.0237739    0.8584937 
H     2.7525697    0.0290605   -0.4685442 
H    -2.8686505    1.5860581    3.4798038 
H    -2.9471943    0.0507619    4.1576745 
N     1.6523354    1.4643260    4.3255858 
N     0.6581450    1.8750499    4.4981441 
