15
Energy = -561.9207597572
C     1.2268265    0.7392203   -0.1377955 
C     0.8033007    0.6999667    1.1766175 
C     0.7198599   -0.5038194    1.8589516 
N     1.0376716   -1.6561997    1.2863134 
C     1.4452058   -1.6274912    0.0213462 
C     1.5570545   -0.4647361   -0.7301568 
N     0.4325366    1.9428803    1.8540964 
O     0.4938596    2.9664567    1.2086401 
O     0.0893085    1.8645370    3.0124151 
H     1.2853738    1.6847639   -0.6586883 
H     0.3845835   -0.5215963    2.8884166 
H     1.6955914   -2.5871867   -0.4191282 
H     1.8936752   -0.5066997   -1.7574197 
N    -2.2699238   -0.5901138    0.1087239 
N    -1.9741007   -1.1356270   -0.7867986 
