15
Energy = -561.9200616658
C     0.8446003    0.4147337    0.0305763 
C     1.0950055    0.3114849   -1.3217128 
C     0.1481205   -0.3574180   -2.0842116 
N    -0.9597183   -0.8895587   -1.5811620 
C    -1.1678850   -0.7728893   -0.2747446 
C    -0.2945762   -0.1265326    0.5884086 
N     1.8142577    1.1095382    0.8953327 
O     2.7987797    1.5695719    0.3639042 
O     1.5578685    1.1702100    2.0760157 
H     1.9905336    0.7337661   -1.7533838 
H     0.2945321   -0.4693721   -3.1531669 
H    -2.0785026   -1.2190977    0.1102515 
H    -0.4843571   -0.0464007    1.6486908 
N     1.9068533   -3.0703214   -0.6570885 
N     1.1780670   -3.3244237    0.1119538 
