14
Energy = -577.9127852932
N     1.2032207    0.4496559   -0.0234013 
C     1.2267482    0.7526190   -1.3140195 
C     0.5013082    0.0300286   -2.2461357 
C    -0.2621126   -1.0274299   -1.8285779 
C    -0.2302835   -1.2805374   -0.4634063 
N     0.4775021   -0.5640759    0.3996945 
N     0.5455133    0.3990861   -3.6662563 
O     1.2580957    1.3266136   -3.9712273 
O    -0.1370304   -0.2510905   -4.4238037 
H     1.8382874    1.5945859   -1.6094276 
H    -0.8451854   -1.6146190   -2.5238334 
H    -0.7986745   -2.0957386   -0.0320441 
N    -2.5424644    3.1673857   -3.3320944 
N    -1.8010514    2.4129417   -3.0728027 
