14
Energy = -577.9125059025
N     1.6892853    0.6359658   -0.4912335 
C     0.7449576    1.0675379   -1.2883997 
C    -0.3084360    0.3155099   -1.7794938 
C    -0.3303739   -0.9948304   -1.3631917 
C     0.6905262   -1.4112521   -0.5171047 
N     1.6702908   -0.6192240   -0.0983761 
N     0.8421215    2.5015811   -1.6741913 
O     0.0288341    2.8786218   -2.4922547 
O     1.6950135    3.1708749   -1.1588776 
H    -1.0444677    0.7533207   -2.4374407 
H    -1.1073647   -1.6792585   -1.6772592 
H     0.7385003   -2.4292134   -0.1488466 
N    -0.0931939    2.6028845    1.5592864 
N     0.4242311    2.9561677    2.4501178 
