14
Energy = -577.9427000124
C     1.0903631    0.6118142    0.1985186 
C     1.7893304   -0.1397914   -0.7338733 
N     3.0443355    0.0573206   -1.0450535 
C     3.6488628    1.0469230   -0.4050148 
C     2.9739564    1.8145560    0.5380256 
N     1.7002649    1.6001121    0.8397098 
N     1.0987565   -1.2534262   -1.4355810 
O    -0.0811596   -1.3825465   -1.1847618 
O     1.7475585   -1.9337999   -2.1838938 
H     0.0516562    0.4092724    0.4215551 
H     4.6900335    1.2316766   -0.6441846 
H     3.4772523    2.6202368    1.0613388 
N     3.7473709   -1.1899033    2.3092537 
N     2.8231706   -1.7217481    2.0853360 
