13
Energy = -593.9801663053
N     0.7708496    0.2166570    0.4017363 
C     0.4646984   -0.9584763   -0.1293104 
N    -0.4343250   -1.8121772    0.3527779 
C    -0.9939519   -1.3842126    1.4575710 
N    -0.7940431   -0.2612906    2.1027633 
C     0.1077828    0.5160074    1.5096582 
N    -1.9855278   -2.3026193    2.0671336 
O    -1.6241430   -2.8836782    3.0592132 
O    -3.0513213   -2.3789053    1.5119725 
H     0.9855726   -1.2524740   -1.0344214 
H     0.3163607    1.4721448    1.9779497 
N     1.8326254   -2.2315467    2.8799902 
N     2.2073797   -2.8869118    3.6649176 
