13
Energy = -539.8855759554
N     0.8563017    0.2357240   -0.0462404 
C     1.2398726   -0.0843028   -1.2489190 
N     2.2359010    0.6956174   -1.7192726 
H     2.6649319    0.6021501   -2.6275095 
C     2.5128873    1.5887763   -0.7360014 
C     1.6472549    1.2866675    0.2913504 
N     0.7122559   -1.1423906   -2.0631308 
O     1.2252519   -1.2618911   -3.1665587 
O    -0.1753760   -1.8211911   -1.6156421 
H     3.2758502    2.3413001   -0.8405723 
H     1.5593510    1.7739466    1.2487449 
N     3.5678207    0.3755521   -4.6551524 
N     3.7938778    0.0527149   -5.6698961 
