11
Energy = -571.8997688505
N     0.5300178    0.4555001    1.6161240 
C     0.4909819    1.6846570    1.1489719 
N    -0.4573031    1.8840669    0.2250851 
N    -1.0493866    0.7397631    0.0942352 
N    -0.4422404   -0.0789506    0.9285740 
H    -0.7117772   -1.0499045    1.0271318 
N     1.4007514    2.7230276    1.6032844 
O     1.2669384    3.8094629    1.0974544 
O     2.2056165    2.4024873    2.4442575 
N    -1.2431122   -3.1355614    1.2826285 
N    -1.5005735   -4.1840732    1.4207791 
