17
Energy = -725.4765061635
N     0.9601938   -0.3086029    0.7224255 
C     0.3534435   -1.4215416    1.0879974 
C    -0.0550965   -2.4720828    0.2407725 
C     0.2194618   -2.2350625   -1.0948087 
N     0.8061599   -1.1399222   -1.5061588 
C     1.1586522   -0.2368221   -0.5878379 
N    -0.1431589   -3.2209328   -2.1351341 
O     0.2246376   -4.3543144   -1.9355468 
O    -0.7717991   -2.8142318   -3.0790314 
N    -0.6612425   -3.4697489    0.9599440 
C    -0.6170154   -3.0438896    2.1891498 
N    -0.0189326   -1.8217900    2.3366095 
H     0.1239218   -1.3062155    3.1901337 
H     1.6581551    0.6505184   -0.9583947 
H    -1.0094850   -3.5829823    3.0387515 
N     0.9720406    0.7911843    5.6498534 
N     0.6523748    0.0681186    4.9014360 
