18
Energy = -709.4457627313
N     0.6341610    1.0750361   -0.6939535 
C     0.6934864    2.3819218   -0.5524116 
C     0.7067936    3.1352747    0.6474178 
C     0.6655390    2.3783705    1.8140512 
C     0.6193583    1.0012795    1.7105695 
C     0.5964675    0.4017017    0.4521504 
N     0.6626448    2.9882474    3.1458149 
O     1.0151798    2.2875811    4.0718556 
O     0.3008967    4.1367550    3.2260917 
N     0.7888372    4.4738030    0.3673292 
C     0.8184221    4.5333654   -0.9354950 
N     0.7608841    3.3196782   -1.5481258 
H     0.7730805    3.1201373   -2.5340258 
H     0.5992097    0.4039419    2.6104237 
H     0.5467656   -0.6781140    0.3738980 
H     0.8833880    5.4504162   -1.5024348 
N     0.5567745    0.4605159   -4.6539088 
N     0.6454221    1.4321921   -4.1710197 
