18
Energy = -709.4478503840
N     1.0355291    0.3283116    0.2407897 
C     2.1690606    0.4989682   -0.4139078 
C     3.4151233    0.8946349    0.1214650 
C     3.4835476    1.1382674    1.4889241 
C     2.3096663    0.9662258    2.1953462 
C     1.1331136    0.5680313    1.5417316 
N     4.3620919    0.9633030   -0.8689420 
C     3.7061371    0.6252414   -1.9328045 
N     2.3946004    0.3325153   -1.7526789 
H     1.7433593    0.0510841   -2.4704390 
N     4.2712685    0.5429554   -3.2644459 
O     3.4930951    0.2069138   -4.1405480 
O     5.4363331    0.8055868   -3.4022730 
H     4.4070617    1.4443220    1.9631641 
H     2.2807696    1.1361742    3.2635216 
H     0.2222454    0.4389278    2.1166798 
N     0.2651556   -0.6012242   -3.9785632 
N    -0.3569291   -0.9229480   -4.8119123 
