17
Energy = -434.8725660393
C     0.5605313    0.4431537   -0.1921026 
C     1.2045773    1.2247034   -1.1505282 
C     2.5706609    0.9973873   -1.3289953 
N     3.2816550    0.1026506   -0.6568825 
C     2.6448612   -0.6259775    0.2512419 
C     1.2875849   -0.4910772    0.5171394 
C     0.5432451    2.2486624   -1.9547610 
C    -0.7442347    2.5802328   -1.9216127 
H    -0.4981920    0.5686865   -0.0003398 
H     3.1130927    1.5858289   -2.0651084 
H     3.2428164   -1.3507355    0.7947747 
H     0.8165745   -1.1095849    1.2705769 
H     1.1972312    2.7785476   -2.6422052 
H    -1.4546660    2.0947272   -1.2629456 
H    -1.1328712    3.3598073   -2.5632671 
N     2.7923904    2.2804911    2.2123027 
N     2.7398486    3.0310402    1.4242744 
