11
Energy = -248.0862980264
C     0.8690105    0.7431248    0.0047962 
C     1.7770523    1.7435809   -0.3002009 
C     1.8231744    2.8650307    0.5153879 
N     1.0429163    3.0353540    1.5770571 
C     0.1761169    2.0686742    1.8585438 
C     0.0490842    0.9082112    1.1088781 
H     0.8015323   -0.1487040   -0.6066531 
H     2.4394398    1.6614828   -1.1526393 
H     2.5240787    3.6669387    0.3033340 
H    -0.4517598    2.2282674    2.7300569 
H    -0.6766512    0.1549402    1.3881597 
