12
Energy = -451.6094218116
O     0.5066237    0.1850255    0.1363283 
C     1.2092172    1.3203661   -0.0227767 
C     1.7263224    2.2070165    0.8394081 
O     1.6422561    2.2573916    2.1899842 
N     2.4244222    3.1595257    0.0799669 
H     2.6847160    4.0718073    0.4078714 
C     2.2786142    2.9014050   -1.2670125 
O     2.6706293    3.5572002   -2.2077845 
N     1.5642640    1.7164639   -1.2994422 
H     1.2301712    1.3059421   -2.1515155 
H     0.2198913    0.1326859    1.0511877 
H     2.4664895    1.9509951    2.5808101 
