12
Energy = -451.5767701152
O     0.0043157    0.1107136   -0.5266157 
C    -1.1859303   -0.1663750    0.1727837 
C    -2.3914584    0.1835773   -0.6259157 
N    -3.3796803    0.8708048   -0.1780433 
O    -4.2876329    0.9540571   -1.2366573 
C    -3.7973120    0.3120628   -2.3360260 
O    -4.3401708    0.2324412   -3.3947970 
N    -2.5827826   -0.1892596   -1.9205362 
H    -1.9308359   -0.6653233   -2.5169375 
H     0.1243532    1.0615345   -0.5700676 
H    -1.2550675    0.3508345    1.1333208 
H    -1.1807759   -1.2410226    0.3689348 
