18
Energy = -513.1705274907
N     0.6122634    0.5103934    0.1390706 
C     0.1799990    0.5815690   -1.1281107 
O     0.4202571    1.5225962   -1.8707891 
C    -0.6295274   -0.6200992   -1.6113393 
O    -1.0121740   -1.4528213   -0.5234936 
C    -1.8791153   -0.1389216   -2.3582413 
O    -1.5964908    0.6563595   -3.4639487 
C     0.2653218   -1.4766188   -2.5096202 
O    -0.3885059   -2.6454783   -2.9159912 
H     1.1819630    1.2518088    0.5051777 
H     0.3877467   -0.2950517    0.6946745 
H    -1.8907967   -1.1945598   -0.2344059 
H    -2.5234049    0.3867791   -1.6297943 
H    -2.4149422   -1.0251083   -2.7058661 
H    -0.9105590    1.2820471   -3.1821775 
H     1.1943010   -1.7030598   -1.9691340 
H     0.5135475   -0.9053345   -3.4028863 
H    -0.6841712   -3.0926198   -2.1188375 
