15
Energy = -490.8402003645
C     0.7592495    0.7921834   -0.2110107 
O     2.0171870    0.5965741   -0.8387166 
C     2.5234551   -0.6545052   -0.6796665 
C     3.7337533   -0.9393745   -0.0879468 
O     4.6479057   -0.1389268    0.4736266 
N     3.9169182   -2.2640891   -0.1671182 
H     4.7165536   -2.7890097    0.1304206 
N     2.8811437   -2.8880281   -0.7845415 
C     2.0513344   -1.9178464   -1.0951591 
O     0.8861041   -2.1454467   -1.7237095 
H     0.0047635    0.1251759   -0.6340982 
H     0.4742733    1.8265919   -0.3959028 
H     0.8308271    0.6169971    0.8669627 
H     4.3378470    0.7662179    0.3745682 
H     0.8264660   -3.0934928   -1.8762825 
