16
Energy = -450.9414245413
N     0.9573480    0.7112088    0.0976248 
C     0.2818363    1.3216520    1.0540322 
C     0.7403199    1.5884728    2.3517194 
C     2.0316843    1.1659068    2.6516579 
N     2.7294469    0.5483995    1.6980660 
C     2.1731571    0.3569387    0.5021972 
C     2.6593825    1.3708610    3.9844734 
N    -0.2309893    2.2413243    3.0826944 
C    -1.2284741    2.3602744    2.2583123 
N    -0.9869716    1.8274728    1.0185485 
H    -1.6104764    1.8071389    0.2312131 
H     2.7900014   -0.1510043   -0.2320356 
H     2.8825288    0.4035767    4.4392646 
H     2.0029971    1.9353503    4.6438925 
H     3.6082218    1.8971884    3.8694748 
H    -2.1731237    2.8285832    2.4928937 
