15
Energy = -490.8398378166
C     1.1481007    0.6408563    0.0664778 
O     0.5054349    1.8834217   -0.1569939 
C    -0.4211822    2.2170026    0.7507909 
N    -0.7419907    1.4754591    1.7899243 
N    -1.6859366    2.2023058    2.4348309 
H    -2.1327909    1.8351446    3.2524778 
C    -1.9435354    3.3701823    1.8208466 
O    -2.8547999    4.2231199    2.3122402 
C    -1.1402610    3.4279705    0.7099254 
O    -1.1317439    4.4416357   -0.2031563 
H     1.8651290    0.5219718   -0.7423774 
H     0.4245146   -0.1767196    0.0536749 
H     1.6599583    0.6372585    1.0311094 
H    -2.8694413    4.9995773    1.7464266 
H    -0.2550680    4.4994765   -0.5875283 
