13
Energy = -489.6199894309
N     0.9716732    0.6574926    0.0198812 
C     2.1325495    0.4643752   -0.6459140 
C     2.8501831   -0.6939857   -0.6304678 
O     2.4052140   -1.7802865    0.0316637 
C     4.0799112   -0.7612855   -1.3265282 
O     4.7659015   -1.7842940   -1.3533912 
C     4.4222334    0.4897501   -1.9957635 
N     3.7284957    1.5677788   -2.0023969 
O     2.5474313    1.5520651   -1.3072908 
H     0.5071826   -0.1708138    0.3491244 
H     0.3880796    1.4193836   -0.2782947 
H     3.0870943   -2.4532450   -0.1250905 
H     5.3474345    0.5512373   -2.5583467 
