13
Energy = -489.6240291262
N     0.8162666    0.5929844   -0.0225098 
C    -0.3757426   -0.0260058   -0.1744561 
C    -0.6802053   -1.3599532   -0.0929764 
O    -2.0190707   -1.5408775   -0.2506198 
N    -2.6021385   -0.3260080   -0.4468787 
C    -1.6512511    0.5613097   -0.4029844 
O    -1.8537699    1.8716864   -0.5627909 
C     0.2048673   -2.4718974    0.0921388 
O     1.4059695   -2.3176312    0.2182278 
H     0.9164020    1.5229609   -0.3860060 
H     1.6273618   -0.0039664   -0.0250293 
H    -2.7932942    2.0203597   -0.7110884 
H    -0.2584554   -3.4745887    0.1070131 
