12
Energy = -505.5947423922
O     0.6303411    0.9661775   -0.0376345 
C     0.4320228    1.4823296   -1.3074531 
H     0.9145876    0.8573290   -2.0740351 
C    -1.0490457    1.5195849   -1.6483715 
O    -1.8619253    1.0973724   -0.8769015 
C     1.0167628    2.8494286   -1.4408735 
N     1.9574947    3.1780264   -2.2669603 
O     2.1649448    4.4784093   -2.0402349 
N     1.3112008    4.9046557   -1.0515173 
N     0.6202116    3.9320559   -0.6916634 
H    -0.2515049    0.7908605    0.3229070 
H    -1.3246365    1.9372683   -2.6326630 
