12
Energy = -505.7161957626
O     0.6753988    0.1237352    0.0978950 
C    -0.2890505   -0.7994586    0.0220140 
N    -1.2947152   -0.6519206   -0.7569741 
N    -2.2029872   -1.6268288   -0.7614163 
H    -2.9859968   -1.4934959   -1.3795934 
C    -2.1737791   -2.7911851   -0.0065924 
O    -3.0593770   -3.6055899   -0.0959443 
N    -1.0714697   -2.9143970    0.8223688 
C    -0.1856777   -1.9867161    0.8410159 
O     0.8774941   -2.0791981    1.6237793 
H     0.4461317    0.8382317   -0.5066988 
H     0.8011664   -2.9168439    2.0999701 
