15
Energy = -490.8558041414
O     1.5556371   -1.0469017   -0.1916242 
C     1.5067367    0.0419282    0.7137935 
C     0.9816746   -0.3429530    2.0479092 
C    -0.0200928    0.1980289    2.8224579 
O    -0.7802158    1.2798030    2.5241363 
C    -0.0589792   -0.6108019    3.9724142 
O    -0.9069962   -0.4201270    5.0022689 
N     0.8289063   -1.5787513    3.9261105 
N     1.4657709   -1.3893688    2.7624697 
H     2.1265749   -2.0720326    2.4426299 
H     0.6632884   -1.3821036   -0.2996941 
H     0.9025450    0.8699769    0.3295069 
H     2.5368806    0.3983559    0.7895337 
H    -1.3915354    1.4271395    3.2487082 
H    -0.7351925   -1.1026081    5.6567785 
