15
Energy = -490.8673808729
O     0.6569750    0.3992515   -0.3963871 
C    -0.7048505   -0.0232405   -0.5279427 
C    -1.5672534    1.1082604   -0.9553826 
C    -1.1628382    2.1348509   -1.7862965 
O     0.0240051    2.3730312   -2.3481494 
N    -2.2035827    2.9563815   -1.9655163 
H    -2.2248996    3.8106325   -2.4891093 
N    -3.3086430    2.5359435   -1.2922119 
C    -2.9129454    1.4363234   -0.6925039 
O    -3.7393695    0.7146551    0.0828289 
H     0.7063559    0.9841674    0.3631637 
H    -1.0729484   -0.4659512    0.4020101 
H    -0.6734944   -0.8209989   -1.2743178 
H     0.6391419    1.7447625   -1.9379877 
H    -4.5874854    1.1684211    0.0940028 
