15
Energy = -490.8534964893
O     0.7285718    0.3963574    0.0171707 
C    -0.4898711   -0.1684911   -0.4640781 
C    -0.2933453   -0.7833576   -1.8024441 
N    -0.8358622   -1.9360228   -2.1673597 
N    -0.4208830   -2.1194307   -3.4299240 
H    -0.6962513   -2.9385416   -3.9390838 
C     0.3889315   -1.1329660   -3.8650904 
O     0.9098727   -1.1636046   -5.1027041 
C     0.4956852   -0.2356046   -2.8310731 
O     1.2141128    0.9186948   -2.8512641 
H     1.3420379   -0.3242645    0.1758341 
H    -1.1875775    0.6704187   -0.5168912 
H    -0.9039274   -0.9039463    0.2312047 
H     1.4639814   -0.3864847   -5.2112357 
H     1.3488266    1.1752175   -1.9310825 
