15
Energy = -412.7761946401
C     0.8144597    0.7195138    0.0556410 
N     1.0228456    0.8351207    1.4773405 
C     2.1793800    0.4338905    2.1071761 
C     1.9483083    0.6374857    3.4499233 
N     2.4119852    0.5819413    4.7239778 
N     1.4647415    1.0312849    5.5867715 
N     0.4172523    1.3791661    4.9449695 
C     0.6472351    1.1601641    3.6108345 
C     0.0795792    1.2748842    2.3530388 
H     1.7139539    1.0274784   -0.4769499 
H    -0.0045678    1.3715722   -0.2410780 
H     0.5695465   -0.3071513   -0.2242021 
H     3.0174682    0.0607993    1.5460296 
H     3.2897687    0.2709769    5.0940826 
H    -0.8809513    1.6216682    2.0142004 
