15
Energy = -412.8140365619
N     0.6361046    0.5143757    0.1285605 
C     1.5490090    0.6869478    1.1529186 
N     2.0240731   -0.3445844    1.8203387 
N     2.7837650    0.1679632    2.8460466 
H     3.4315209   -0.4503191    3.2946232 
C     2.8484162    1.5102955    2.7240064 
C     2.0398393    1.9161814    1.6782723 
C     2.0737308    3.3456867    1.6691731 
C     2.8955267    3.7199146    2.6942344 
N     3.3694966    2.5908917    3.3562881 
H     4.0025965    2.5982015    4.1318821 
H     0.5984231   -0.4402970   -0.1936584 
H     0.7570888    1.1599038   -0.6346613 
H     1.5630356    4.0246231    1.0062150 
H     3.1972258    4.7017365    3.0193444 
