15
Energy = -412.8052362284
N     0.9676372    0.7263921    0.0951222 
C    -0.4128387    0.6770653    0.2851341 
C    -1.1737305   -0.3968346    0.6622482 
N    -2.5237574   -0.0140694    0.7785220 
H    -3.2133889   -0.5426042    1.2767494 
C    -2.5634391    1.3135716    0.5191453 
C    -1.3068978    1.7947668    0.1864177 
C    -1.5372577    3.1645557   -0.0861284 
N    -2.8101776    3.4773713    0.0720992 
N    -3.4396824    2.3329640    0.4405155 
H    -4.4236243    2.3561807    0.6244765 
H     1.2350379    1.3161125   -0.6777164 
H     1.3887577   -0.1831294   -0.0092336 
H    -0.8849456   -1.4194365    0.8402354 
H    -0.8438048    3.9364675   -0.3820009 
