15
Energy = -412.7858102274
N     0.7818605    0.3982929   -0.1019411 
C     1.9763350    0.2425463    0.5798983 
C     3.0400445    1.0974545    0.7397067 
C     3.6622628    2.4294655    0.4951195 
C     5.0047955    2.2591322    1.1714314 
C     5.1111213    1.0378125    1.6994897 
N     3.9273372    0.3429532    1.4378747 
N     3.4922800   -0.8726777    1.6940710 
N     2.2942314   -0.9372429    1.1779754 
H     0.3343778    1.2884312    0.0466113 
H     0.1484484   -0.3608783    0.0985821 
H     3.0951026    3.2577275    0.9334388 
H     3.7727465    2.6550775   -0.5710360 
H     5.7618882    3.0264981    1.2149221 
H     5.9116693    0.5665306    2.2457544 
