15
Energy = -412.8095679314
N     0.8002992    0.7955219    0.0210509 
C     0.4852169   -0.5591022    0.1486761 
C     0.6582836   -1.6267483   -0.6861274 
C     0.0137906   -2.7460069   -0.0551136 
C    -0.5038278   -2.2711521    1.1367407 
N    -1.0591201   -3.2992147    1.8054491 
H    -1.5797125   -3.3080980    2.6609182 
N    -0.9642085   -4.4395496    1.0818275 
C    -0.3113928   -4.1214809   -0.0247978 
N    -0.2001331   -0.9506562    1.3006133 
H    -0.6829071   -0.2885131    1.8795940 
H     1.0300878    1.0315240   -0.9315360 
H     1.5590159    1.0845529    0.6248817 
H     1.2022725   -1.6041219   -1.6164498 
H    -0.1062534   -4.8941538   -0.7493475 
