15
Energy = -412.8161897050
N     0.5778850    0.2767414    0.0192358 
C     1.0012503    1.1380382    1.0290786 
N     0.4304705    1.1473835    2.2214849 
N     1.0130221    2.1459228    2.9299058 
H     0.6953507    2.3266427    3.8607762 
C     1.9706872    2.7734554    2.2083536 
C     1.9842273    2.1471131    0.9702600 
N     2.9380751    2.7639881    0.1998200 
H     3.1260115    2.5942331   -0.7686133 
C     3.4975217    3.7692008    0.9448841 
C     2.9366979    3.8132837    2.2007207 
H    -0.1282975   -0.3546974    0.3692728 
H     1.3357179   -0.2551305   -0.3835793 
H     4.2705675    4.3937705    0.5267495 
H     3.2042840    4.5020086    2.9842275 
