15
Energy = -412.8151322697
N     0.9487059    1.1898558    0.2135291 
C    -0.2616296    0.5066969    0.1709650 
C    -0.8601848   -0.3110466    1.1045756 
C    -2.1333263   -0.6223185    0.5487723 
C    -2.2535362   -0.0038653   -0.6865344 
N    -1.0748176    0.6765468   -0.9244952 
H    -0.9497580    1.4269079   -1.5775658 
C    -3.5057770   -0.3803041   -1.1936052 
N    -4.1227804   -1.1701348   -0.3229050 
N    -3.2826553   -1.3131415    0.7202667 
H    -3.5617693   -1.8941027    1.4866587 
H     1.4302088    1.0505950    1.0872787 
H     1.5646446    0.9622232   -0.5546810 
H    -0.4133691   -0.6466409    2.0255078 
H    -3.9961378   -0.1211013   -2.1183401 
