14
Energy = -287.3750249056
C     0.9968784    1.0210437   -0.0660865 
C     0.0098935    1.9602421   -0.3106768 
C     0.0264325    3.1285745    0.4364571 
N     0.9311609    3.3955293    1.3687581 
C     1.8826127    2.4911344    1.6056124 
C     1.9463295    1.2896968    0.9048895 
C     2.8789122    2.8329646    2.6671366 
H     1.0284848    0.0920593   -0.6230023 
H    -0.7545386    1.7975057   -1.0593860 
H    -0.7301293    3.8912019    0.2750052 
H     2.7332701    0.5781386    1.1226757 
H     2.3751231    2.9623757    3.6270191 
H     3.3665810    3.7806558    2.4326574 
H     3.6399259    2.0602154    2.7721442 
