16
Energy = -396.7349349579
C     0.9016660    0.6218031    0.2120010 
C     1.6428564   -0.4771840   -0.4520306 
H     2.7256966   -0.4781832   -0.4812371 
N     1.0122784   -0.6626312    0.8790893 
C    -0.1706777   -1.5385807    0.7398626 
C    -0.2364607   -1.8470191   -0.7216604 
N    -1.0306385   -2.5379510   -1.5131292 
N    -0.4513446   -2.4057260   -2.7153790 
H    -0.8603622   -2.8711504   -3.5046428 
C     0.6795138   -1.6522289   -2.7059243 
C     0.8425136   -1.2656602   -1.4009729 
H    -0.0533119    0.8944099   -0.2290726 
H     1.4386790    1.4314280    0.6938736 
H    -1.0596578   -1.0311424    1.1208784 
H    -0.0169667   -2.4367907    1.3425643 
H     1.2392850   -1.4680433   -3.6079925 
