16
Energy = -396.7655253884
C     0.9942103    0.6576583   -0.1032716 
N     1.8724501    0.7876116    1.0198022 
N     2.9363100   -0.0414616    1.1720806 
C     3.5603332    0.3311016    2.2764040 
C     2.9125408    1.4326431    2.8842363 
C     1.8461851    1.6734304    2.0308807 
N     1.1066356    2.7206404    2.4777508 
H     0.2848177    3.1129521    2.0619515 
C     1.7109017    3.1658621    3.6489811 
C     2.8119540    2.4066202    3.9278488 
H    -0.0382524    0.5035084    0.2209063 
H     1.3200424   -0.2111411   -0.6690876 
H     1.0389469    1.5392106   -0.7487082 
H     4.4428970   -0.2075229    2.5844819 
H     1.2916606    4.0005420    4.1864000 
H     3.4579648    2.5434022    4.7793752 
