15
Energy = -412.8327772689
N     0.7105558    0.6476649    0.1270017 
C     1.8774145    0.9312123    0.8172876 
C     2.9858327    1.6198993    0.3686131 
N     3.8170376    1.6757800    1.4815475 
C     5.0362348    2.1200369    1.9495751 
C     5.1146392    1.7400503    3.2511075 
N     3.9527670    1.0657802    3.5779666 
H     3.7209683    0.6705279    4.4678497 
C     3.1556998    1.0311615    2.4772354 
N     1.9812394    0.5579872    2.1327049 
H     0.8399205    0.4917810   -0.8588380 
H     0.2016841   -0.1081813    0.5572214 
H     3.2313210    2.0698132   -0.5753667 
H     5.7418809    2.6610483    1.3459215 
H     5.9017248    1.8970462    3.9661352 
