18
Energy = -397.9884848275
N     0.8982762    0.0604093   -0.4672192 
C     1.0808296   -0.6635275    0.7149490 
C     0.3533855   -1.7502110    1.1404632 
N     1.0096598   -2.2482583    2.2552893 
C     0.6527366   -3.0865394    3.3696333 
C     1.9810177   -3.0943688    4.1346815 
N     2.5465171   -1.7751846    3.8310344 
C     2.0457490   -1.4380898    2.5724952 
C     2.1587106   -0.4459450    1.6315886 
H     1.1088582    1.0402900   -0.3556787 
H    -0.0296657   -0.0405584   -0.8477198 
H    -0.4847502   -2.2582357    0.6951427 
H     0.3444759   -4.0853116    3.0591590 
H    -0.1515339   -2.6352592    3.9636162 
H     2.6141447   -3.9047504    3.7535840 
H     1.8438740   -3.2277056    5.2073885 
H     3.5493745   -1.7222605    3.9170827 
H     2.9018944    0.3326858    1.5816194 
