16
Energy = -396.7886239111
N     1.0612339    0.2247602    0.0025954 
C     0.6592728    0.6495616    1.2606158 
C     1.3519466    1.4335955    2.1646037 
N     0.5284412    1.4822441    3.2636846 
C     0.4689336    2.0586115    4.5797205 
C    -0.8652779    1.5564609    5.0691860 
C    -1.4520501    0.8031224    4.1275042 
C    -0.5736481    0.7535452    2.9794624 
N    -0.5358763    0.2323176    1.7715975 
H     0.2763011   -0.1026577   -0.5384387 
H     1.5996784    0.9029667   -0.5107520 
H     2.3137569    1.9127882    2.1178370 
H     0.5070252    3.1516846    4.5441846 
H     1.2933692    1.7126806    5.2107547 
H    -1.2523981    1.7939090    6.0482007 
H    -2.4094106    0.3097774    4.1911600 
