16
Energy = -396.7676545239
C     0.7622563    1.2398789   -0.0162914 
N     0.6780664    0.1346281   -0.9274939 
C    -0.3383991   -0.1121405   -1.8147438 
C    -0.1046651   -1.2622039   -2.5351944 
C     1.1373140   -1.7422064   -2.0490314 
C     1.5965322   -0.8720766   -1.0666021 
C     2.8249295   -1.3940604   -0.6222028 
N     3.0992683   -2.5074214   -1.2868851 
N     2.0813792   -2.7098455   -2.1417054 
H     2.1076566   -3.5129101   -2.7394977 
H    -0.1105985    1.8770111   -0.1469346 
H     1.6580476    1.8357512   -0.2064769 
H     0.7870022    0.8931128    1.0195983 
H    -1.1765012    0.5650091   -1.8721035 
H    -0.7490521   -1.6731097   -3.2937596 
H     3.5135606   -1.0356156    0.1260442 
