15
Energy = -412.7874444894
N     1.0446157    1.0075370   -0.0351427 
C     1.0578133    0.6306040    1.2950923 
C     1.8217586   -0.3043023    1.9649983 
C     2.8247526   -1.3440746    1.9497538 
C     3.0015957   -1.7865759    3.2048886 
C     2.1032359   -1.0483518    4.1630468 
N     1.4228634   -0.1543896    3.2544931 
N     0.5144369    0.7789854    3.4059073 
N     0.2804930    1.2595627    2.2118423 
H     1.0907936    0.2401675   -0.6856005 
H     0.2588848    1.6071978   -0.2363475 
H     3.3448244   -1.6965550    1.0720492 
H     3.6850312   -2.5584546    3.5250946 
H     2.6582822   -0.4886129    4.9204765 
H     1.3940999   -1.7042316    4.6752981 
