17
Energy = -326.6636977676
C     0.8249868    0.8732727   -0.0438134 
C     0.5902298    1.2449470   -1.3555687 
C     0.1873015    0.2714675   -2.2649743 
N     0.0219716   -1.0014447   -1.9109115 
C     0.2468435   -1.3631267   -0.6493148 
C     0.6519725   -0.4502405    0.3199817 
C     0.0406392   -2.8089266   -0.3251501 
C    -0.0841369    0.6037933   -3.6980919 
H     1.1398037    1.6080387    0.6879552 
H     0.7153575    2.2714285   -1.6763928 
H     0.8264358   -0.7774757    1.3372003 
H     0.6917800   -3.4288433   -0.9441990 
H    -0.9865841   -3.1011882   -0.5507808 
H     0.2449851   -3.0217412    0.7237506 
H     0.5606018    0.0108446   -4.3493477 
H     0.0803991    1.6605064   -3.9067258 
H    -1.1147837    0.3503961   -3.9533048 
