14
Energy = -432.6808243060
N     0.7539071    0.3447162   -0.1757528 
C     1.9546837    0.3129474    0.4933116 
C     2.3411711   -0.2918125    1.6601830 
C     3.6811868    0.1697742    1.8423865 
C     3.9807676    0.9824816    0.7897870 
O     2.9247816    1.0901507   -0.0616234 
N     5.2286696    1.4746050    0.7966072 
C     5.7314294    0.9572434    1.8995638 
N     4.8377642    0.1553724    2.5718726 
H     5.0191128   -0.3273190    3.4317100 
H     0.1481642   -0.4277916    0.0451223 
H     0.8547837    0.4699799   -1.1712820 
H     1.7348478   -0.9445677    2.2645167 
H     6.7296203    1.1275472    2.2681930 
