12
Energy = -472.4068885114
O     0.7098900   -0.0872167    0.2232749 
C     1.8488979   -0.0465305   -0.0842244 
O     2.5651124    1.1326857   -0.2559714 
C     3.8011608    0.7226038   -0.6348178 
C     3.8859504   -0.6162002   -0.6792632 
O     2.6495511   -1.1217934   -0.3330133 
C     5.2242049   -0.9799260   -0.9274015 
C     5.8924332    0.2238815   -1.0311725 
N     5.0154534    1.2759863   -0.8246803 
H     5.2396008    2.2501464   -0.9004625 
H     5.6611077   -1.9572124   -1.0375646 
H     6.9209745    0.4177934   -1.2803527 
