16
Energy = -396.7784992967
C     0.8513431    0.7984878   -0.0246677 
N     1.8679593    1.0397507    0.9577759 
C     1.6997809    1.1559613    2.3272140 
N     2.8040490    1.3785852    2.9846229 
C     3.7768953    1.4165410    2.0127411 
C     3.2054435    1.2098736    0.7753969 
N     4.1512254    1.2428803   -0.1960826 
H     4.0307198    1.1276100   -1.1831311 
C     5.3638882    1.4790271    0.4424094 
C     5.1738825    1.5906798    1.7958364 
H     0.7906111    1.6217407   -0.7408106 
H    -0.1099503    0.7111722    0.4788466 
H     1.0399952   -0.1305739   -0.5682294 
H     0.7144992    1.0614897    2.7600042 
H     6.2692933    1.5472786   -0.1370338 
H     5.9496375    1.7736576    2.5209345 
