16
Energy = -396.7923190291
C     0.9198218    0.8053204    0.0410209 
C     1.0629980   -0.4222775    0.8592027 
N     1.0454085   -1.6477139    0.4083594 
C     1.2057091   -2.4444383    1.5216641 
C     1.3187040   -1.6580886    2.6451765 
N     1.4870677   -2.4278513    3.7476722 
H     1.5848834   -2.1342846    4.6995664 
C     1.4761635   -3.7494148    3.3141322 
C     1.3071012   -3.7973073    1.9539117 
N     1.2313668   -0.3595547    2.2367856 
H     1.2680420    0.4778083    2.7863992 
H     0.8281764    0.5109899   -1.0019832 
H     1.7866408    1.4644105    0.1398886 
H     0.0301399    1.3778910    0.3175311 
H     1.5908128   -4.5479720    4.0275543 
H     1.2647151   -4.6968810    1.3623233 
