14
Energy = -395.5737934880
N     0.9522239    0.8448568    0.1011316 
H     1.6327661    0.2530490    0.5515346 
C    -0.2514478    1.0403885    0.6867727 
C    -1.1786214    1.8450661    0.0757981 
N    -0.9722400    2.4722452   -1.0975631 
C     0.1916447    2.2830636   -1.6639031 
N     0.6249607    2.8021360   -2.8328799 
C     1.8566519    2.3202349   -2.9747463 
C     2.3106300    1.4690356   -1.9323874 
C     1.2399646    1.4351442   -1.0734466 
H    -0.4271501    0.5419831    1.6279400 
H    -2.1392338    1.9957134    0.5519454 
H     2.4412509    2.5868064   -3.8473584 
H     3.2680145    0.9791491   -1.8554655 
