16
Energy = -396.7878148230
C     0.8663910    0.7541620   -0.1177573 
N     1.9942635    0.3315406   -0.9361100 
C     1.6710609   -0.5826611   -1.9087237 
C     0.6279235   -1.4644149   -1.7287408 
N     0.7008183   -2.3007877   -2.8221296 
H     0.0705965   -3.0476425   -3.0485949 
C     1.7333387   -1.8737562   -3.5830104 
N     2.3516526   -0.8362001   -3.0528679 
C    -0.1161255   -1.4852546   -0.5070422 
C     0.0480913   -0.4376629    0.3147357 
H     0.2097902    1.4614168   -0.6614772 
H     1.2524188    1.2838431    0.7544131 
H     2.6180091    1.0630390   -1.2339900 
H     1.9882192   -2.3362645   -4.5232765 
H    -0.7381834   -2.3288138   -0.2311591 
H    -0.4478018   -0.3984110    1.2756052 
