20
Energy = -365.9506711773
C     0.8901548    0.9031793    0.0093786 
C    -0.1836031    0.4440002   -0.7413390 
C    -1.4510286    0.9735417   -0.5281942 
N    -1.6822655    1.9205835    0.3787734 
C    -0.6625686    2.3744500    1.1046018 
C     0.6319451    1.8923183    0.9484921 
C    -0.9805274    3.4435203    2.1019244 
C    -2.6339217    0.5036180   -1.3146680 
C     2.2634344    0.3374771   -0.1689141 
H    -0.0376626   -0.3225380   -1.4938442 
H     1.4347731    2.2923413    1.5571964 
H    -1.7499519    3.0946852    2.7928854 
H    -1.3828101    4.3223520    1.5942178 
H    -0.1009580    3.7398494    2.6728366 
H    -3.3848032    0.0798196   -0.6449225 
H    -2.3570271   -0.2489204   -2.0524775 
H    -3.1027299    1.3458044   -1.8266252 
H     2.4258788    0.0041404   -1.1944543 
H     2.4069613   -0.5281941    0.4835773 
H     3.0310271    1.0693026    0.0846588 
