16
Energy = -396.7896666404
C     0.8771482    0.8115830    0.0249036 
C     0.7355754    2.0057180    0.8929386 
C     1.6917483    2.7844656    1.4949213 
C     0.9955753    3.8006996    2.2148329 
C    -0.3473197    3.5806521    2.0087795 
N    -1.0234842    4.5472843    2.6889911 
H    -2.0119726    4.6939752    2.7645458 
C    -0.0363945    5.3150846    3.2830634 
N     1.1720597    4.9002379    3.0222071 
N    -0.5305772    2.4987461    1.2094744 
H    -1.3937722    2.0995933    0.8952103 
H     0.4444589    0.9703222   -0.9678506 
H     0.3975512   -0.0719060    0.4578380 
H     1.9330662    0.5811804   -0.1087222 
H     2.7550932    2.6266518    1.4148078 
H    -0.2929433    6.1658343    3.8951768 
