16
Energy = -396.7777544391
C     1.1948492    0.7331511    0.0231778 
N     0.1447568    1.4211584    0.7162193 
C     0.1925519    1.9055732    2.0193952 
C    -0.9870563    2.5211788    2.3538509 
C    -1.8167717    2.4189860    1.2014633 
C    -1.0822945    1.7480702    0.2468714 
N    -1.8654050    1.6410929   -0.8636510 
H    -1.6563961    1.2163343   -1.7469965 
C    -3.0519380    2.2639533   -0.5158868 
N    -3.0582333    2.7356914    0.6993099 
H     0.8721090   -0.2603068   -0.2997493 
H     2.0409074    0.6126662    0.6968843 
H     1.5316854    1.2962672   -0.8516367 
H     1.0885332    1.7606396    2.6009024 
H    -1.2069658    2.9775007    3.3047529 
H    -3.8672833    2.3281861   -1.2199966 
