15
Energy = -412.8356268668
N     0.3775101    0.1084125   -0.2224324 
C     0.2313461    1.1343459    0.6519180 
N    -0.5705834    2.1331898    0.4746953 
C    -0.5069371    3.0065440    1.6445991 
C     0.4881028    2.3431962    2.5322525 
C     0.9321949    1.2097601    1.9288574 
N     1.8568943    0.5461096    2.6831179 
C     1.9671001    1.2908583    3.7547556 
N     1.1543881    2.3994733    3.7161334 
H     1.0842763    3.0983915    4.4332270 
H     0.0097887    0.2441857   -1.1472435 
H     1.1994420   -0.4605592   -0.1368680 
H    -1.4984539    3.0923839    2.1015545 
H    -0.2067140    4.0146828    1.3407512 
H     2.6123800    1.0919507    4.5968541 
