15
Energy = -412.8196573667
C     0.8744656    0.7287185   -0.0256342 
N     1.5215912   -0.1615118    0.9289777 
C     0.8602594   -0.6946210    1.8683353 
N    -0.4819693   -0.5398894    2.1465343 
C    -1.1466058    0.4409135    1.4439982 
N    -2.3679328    0.8704106    1.6849204 
N    -2.5409650    1.8273691    0.7568911 
H    -3.4158777    2.3143438    0.7207150 
C    -1.4660612    1.9987129   -0.0433609 
C    -0.5175059    1.0977691    0.3757540 
H     0.8878872    0.2308099   -1.0033678 
H     1.5072021    1.6145142   -0.1402875 
H     1.3735727   -1.3685648    2.5513265 
H    -0.8600239   -0.8778506    3.0128804 
H    -1.4610385    2.7322010   -0.8334248 
