16
Energy = -396.8005084981
C     0.9578016    1.0692686    0.3108824 
C     2.2993150    0.6148524   -0.1301902 
C     3.1482762    1.1762030   -1.0640735 
C     4.2894427    0.3363884   -1.0874863 
C     4.0998077   -0.6883203   -0.1844006 
N     2.8785448   -0.5172587    0.4031866 
H     2.4648464   -1.1061714    1.1008618 
N     5.1378028   -1.5577109   -0.1259139 
C     5.9828106   -1.0648686   -1.0049387 
N     5.5295045    0.0745384   -1.6171471 
H     6.0245844    0.5983152   -2.3135957 
H     0.1887639    0.3139419    0.1234111 
H     0.6763116    1.9705144   -0.2319559 
H     0.9368034    1.3040224    1.3793296 
H     2.9382574    2.0689512   -1.6300703 
H     6.9447660   -1.4902787   -1.2438718 
