15
Energy = -412.8193455201
C     0.8001583    0.6916590    0.0262660 
C     1.9586042   -0.0806143    0.5340020 
C     3.2687523    0.2609908    0.8182966 
N     4.1822674    1.2965748    0.8437451 
C     5.2720412    0.7287055    1.2703722 
N     5.1593996   -0.6222027    1.5355017 
H     5.8860411   -1.2264384    1.8699598 
C     3.8589556   -0.9380043    1.2446817 
N     3.0518022   -1.9788799    1.2530824 
N     1.9034646   -1.4100039    0.8110675 
H     1.0934337   -1.9958045    0.7227495 
H     1.0049558    1.7567953    0.1216581 
H    -0.1110956    0.4703761    0.5863635 
H     0.6054167    0.4835449   -1.0292701 
H     6.2121983    1.2399236    1.4190514 
