12
Energy = -323.2741034946
C     0.8695885    0.7444462   -0.0633825 
C     1.9013333    0.3036466   -0.8827385 
C     2.3685542   -0.9894485   -0.7126097 
N     1.8936357   -1.8423278    0.1869301 
C     0.9059874   -1.4003587    0.9615338 
C     0.3587986   -0.1325060    0.8845397 
O     0.3403262    1.9811333   -0.1436134 
H     2.3339757    0.9506374   -1.6381934 
H     3.1744767   -1.3538304   -1.3427488 
H     0.5228052   -2.1036065    1.6947154 
H    -0.4447836    0.1784123    1.5387032 
H     0.7831149    2.4761427   -0.8363295 
