14
Energy = -395.5898716718
N     0.8692796    0.6231892    0.0237912 
H     0.1605289   -0.0962065    0.0343644 
C     1.8712078    0.6171834    0.9236229 
N     2.8167332    1.5127489    0.9676757 
C     2.8016905    2.5133925    0.0602845 
C     1.8273937    2.6156769   -0.9015767 
C     1.4613376    3.4589286   -1.9822806 
C     0.3168510    2.8931419   -2.4986331 
N    -0.1002727    1.7487249   -1.8478915 
C     0.7986897    1.5996552   -0.9121061 
H     1.8640215   -0.1938446    1.6416608 
H     3.6106436    3.2322245    0.1408690 
H     1.9658661    4.3472154   -2.3257827 
H    -0.2593519    3.2566103   -3.3384643 
