14
Energy = -415.6784362666
O     0.9039123    0.3551930   -0.0777040 
C     1.2649661    1.5120873    0.6825252 
C     1.9938110    1.1298045    1.9205287 
C     1.7296746   -0.0147081    2.6448578 
O     0.8595714   -1.0071282    2.4326307 
N     2.5571691   -0.0187655    3.7006738 
H     2.6276190   -0.7222931    4.4128853 
N     3.3618469    1.0620058    3.7305138 
C     3.0258309    1.7499278    2.6556044 
H     1.7145812   -0.0397833   -0.4070976 
H     0.3129548    2.0008411    0.9047340 
H     1.8518246    2.2105978    0.0776852 
H     0.5107217   -0.8650851    1.5394950 
H     3.5312004    2.6796201    2.4389407 
