15
Energy = -453.8139954032
N     0.7465248    0.5578804   -0.1112835 
C    -0.4080182    1.2007770    0.1646801 
O    -0.8263495    2.0997436   -0.5831925 
C    -1.1487693    0.8311836    1.3457330 
C    -2.3326641    1.5030932    1.6138695 
O    -2.9004123    2.4679351    0.9201212 
N    -2.8611398    1.0085384    2.7497904 
H    -3.7198907    1.3266004    3.1597085 
C    -2.0359227    0.0085776    3.2432814 
C    -0.9763760   -0.1215545    2.4008080 
H     1.2425819    0.8037820   -0.9478404 
H     1.0820422   -0.1912731    0.4620578 
H    -2.2627658    2.5878496    0.1610080 
H    -2.2850991   -0.5138312    4.1503743 
H    -0.1665787   -0.8222162    2.5292841 
