17
Energy = -417.7322270945
O     2.2272717   -0.2791848    1.3649065 
C     1.2518799    0.5321321    0.7721109 
H     1.7326622    1.1104647   -0.0245806 
C     0.2166133   -0.2619479    0.0852196 
N    -0.5813804   -0.8484507   -0.4985880 
C     0.7036526    1.5287664    1.7995467 
H     1.2982464    2.4430944    1.7404297 
C    -0.7741910    1.7185529    2.1783659 
H    -1.5856258    2.1287948    1.5750517 
C    -0.6542697    0.3438051    2.8486284 
N     0.6721302    0.9954332    3.2302418 
C    -0.1833134    2.2296646    3.5006775 
H     2.0855079   -0.2298193    2.3208384 
H    -0.5605606   -0.5463007    2.2310851 
H    -1.2943805    0.1496949    3.7096615 
H     0.3803083    3.1637316    3.4899759 
H    -0.7921345    2.1324634    4.3993124 
