14
Energy = -473.6110736994
O     0.9807516    0.3472966    0.3259315 
C     0.6545679    1.6602445    0.2208459 
C     0.6803952    2.3550366   -0.9275710 
O     0.3401897    3.6794642   -0.9706391 
C    -0.0350968    4.3429279    0.1365980 
N    -0.3617629    5.5721713    0.1590611 
C    -0.0701033    3.6056441    1.3949698 
O    -0.4503340    4.3266414    2.4449418 
C     0.2647098    2.3018511    1.4383600 
H     1.2289106    0.0032175   -0.5343869 
H     0.9570512    1.9726715   -1.8981518 
H    -0.3139349    6.0186251   -0.7490857 
H    -0.6178746    5.2177845    2.0792725 
H     0.2454233    1.7381441    2.3608949 
