19
Energy = -419.0873981198
C     1.3308188    0.5281406    0.0821201 
C     1.0126975    0.8036038   -1.3386010 
C     0.0242120    0.3487504   -2.1719336 
C    -1.0961661   -0.5920908   -1.8918376 
C    -2.4192648   -0.0969910   -2.4681461 
O    -2.4134196   -0.0609790   -3.8704530 
N     0.1692193    0.9159171   -3.4199105 
C     1.2151457    1.6937002   -3.3495307 
N     1.7625084    1.6584820   -2.1134902 
H     2.5739767    2.1663819   -1.8111630 
H     1.3470255    1.4423110    0.6819461 
H     2.3010603    0.0365907    0.1966996 
H     0.5777360   -0.1325636    0.5087934 
H    -1.1988868   -0.7345089   -0.8127995 
H    -0.8817403   -1.5735663   -2.3282352 
H    -2.6471690    0.8927685   -2.0442496 
H    -3.2237160   -0.7732176   -2.1685569 
H    -1.5956506    0.3926960   -4.1257637 
H     1.6137170    2.2968249   -4.1500540 
