18
Energy = -476.0462120396
C     1.1569262    0.7206442    0.1931125 
C     1.5581403    2.1537292    0.3972232 
H     2.3819297    2.2269822    1.1155097 
O     2.0400615    2.6955264   -0.8614182 
C     1.6314213    3.9640609   -0.9905805 
N     1.7071018    4.7051189   -2.0037336 
H     2.1363996    4.2439870   -2.7999137 
C     0.9678305    4.4225048    0.2815210 
H     1.7341714    4.8240615    0.9590314 
O    -0.0323675    5.3621569    0.0354026 
C     0.4410338    3.1011850    0.8326837 
H     0.3359884    3.1041041    1.9233127 
O    -0.7659432    2.7714005    0.2071796 
H     1.9992550    0.1425594   -0.1867668 
H     0.3278933    0.6586963   -0.5094638 
H     0.8396900    0.2867989    1.1429360 
H     0.1571859    5.7106210   -0.8481966 
H    -1.1949882    3.6101994   -0.0012080 
