18
Energy = -476.0306339321
C     0.9062011    0.7490155    0.1001639 
N    -0.0127988    1.7403780    0.6054130 
C    -0.8798241    1.4235848    1.4537494 
O    -1.0938521    0.2132078    2.0039878 
C    -1.9876316    0.3561680    3.1226916 
C    -2.0274043    1.8396265    3.4510051 
H    -2.9862427    2.1284163    3.8946561 
O    -0.9554513    2.1682345    4.2900740 
C    -1.8094514    2.4387944    2.0631567 
H    -2.7595254    2.4388963    1.5107502 
O    -1.2397080    3.7104499    2.0873988 
H     0.9994366   -0.1256706    0.7494519 
H     1.8878277    1.2060778   -0.0292410 
H     0.5760655    0.4098296   -0.8855263 
H    -1.5892229   -0.2282423    3.9499068 
H    -2.9715447   -0.0244289    2.8381829 
H    -0.6519950    3.0396573    4.0077879 
H    -0.5196110    3.6712475    1.4391928 
