19
Energy = -419.0642926718
C     0.8643363    0.8036629   -0.5920099 
C    -0.3564858    1.0639283   -1.4720485 
H    -0.8668076    1.9607441   -1.1024328 
C     0.0442398    1.3494514   -2.9192186 
O     0.7574732    0.2996697   -3.5216198 
C    -1.3359010   -0.0668674   -1.3817461 
N    -1.3504651   -1.0414080   -2.2833968 
N    -2.3129815   -1.8770637   -1.8891839 
H    -2.5066529   -2.6965249   -2.4343021 
C    -2.9209653   -1.4749612   -0.7582843 
C    -2.3134810   -0.2990159   -0.3918149 
H     1.5249035    1.6732345   -0.5876938 
H     1.4279043   -0.0474822   -0.9745408 
H     0.5709110    0.5897795    0.4368657 
H     0.6983044    2.2248896   -2.9394977 
H    -0.8572816    1.5965318   -3.4966061 
H     0.1845524   -0.4758590   -3.4639729 
H    -3.7238687   -2.0388464   -0.3126353 
H    -2.5437643    0.3136296    0.4635527 
