13
Energy = -398.4743810690
C     0.9329069    0.7651572   -0.0190489 
C     1.5016286    1.8061536    0.7151217 
C     2.8759040    1.8902223    0.7435285 
N     3.6932105    1.0432425    0.1165627 
C     3.1302672    0.0673351   -0.5709146 
C     1.7571492   -0.1284555   -0.6797792 
O     3.9466706   -0.7895232   -1.2046478 
O    -0.4100010    0.6763844   -0.0516283 
H     0.8750229    2.5143381    1.2382383 
H     3.3576854    2.6853080    1.3031145 
H     1.3677995   -0.9535797   -1.2632474 
H     4.8428929   -0.4920294   -1.0117810 
H    -0.6698359   -0.0776680   -0.5855449 
