19
Energy = -419.0700049474
C     0.8263138    0.9447748   -0.2069454 
C     0.4938567   -0.4358838   -0.6381867 
C    -0.5570070   -1.2680557   -0.3226987 
C    -0.3320812   -2.4562933   -1.0473894 
C    -1.1570469   -3.7005377   -1.0827886 
C    -1.1403556   -4.3890102   -2.4407879 
O     0.1298750   -4.8766593   -2.7890407 
N     0.7832864   -2.3594449   -1.7583749 
N     1.2606101   -1.1372834   -1.4979856 
H     2.1128360   -0.8404728   -1.9370793 
H     1.7949957    0.9865882    0.2967716 
H     0.0724691    1.3077292    0.4892314 
H     0.8597715    1.6341953   -1.0539828 
H    -1.3790350   -1.0442397    0.3372493 
H    -2.1867388   -3.4506624   -0.8132841 
H    -0.7928590   -4.4062782   -0.3286797 
H    -1.5196646   -3.6916391   -3.2017565 
H    -1.8138832   -5.2487244   -2.4204556 
H     0.7343749   -4.1263076   -2.7140461 
