19
Energy = -419.0629528374
C     1.4602872    0.5294009    0.0693719 
C     1.0101812    0.6383546   -1.3408095 
C     0.3758810   -0.2793498   -2.1537269 
C     0.1990279    0.3800665   -3.3763119 
N     0.6805125    1.6109553   -3.3292179 
N     1.1746004    1.7518522   -2.0904621 
C     1.7632876    3.0151525   -1.7019235 
C     2.6729268    3.5711181   -2.7843248 
O     1.9716038    3.9973131   -3.9168798 
H     2.5412488    0.6600131    0.1636029 
H     1.2106556   -0.4571779    0.4558143 
H     0.9785244    1.2719692    0.7097722 
H     0.0880002   -1.2827679   -1.8884433 
H    -0.2549258    0.0162878   -4.2848294 
H     2.3311972    2.8481741   -0.7862901 
H     0.9696918    3.7375748   -1.4890793 
H     3.4296789    2.8132390   -3.0340165 
H     3.1970334    4.4398498   -2.3787099 
H     1.3999996    3.2544327   -4.1653213 
