19
Energy = -419.0598197666
C     0.8056251    0.2816586   -0.4191916 
C    -0.1030668    1.2232625    0.2915633 
C    -1.3206717    0.9490490    0.8778440 
N    -1.7882560    2.1001066    1.4013364 
C    -3.0215821    2.3189674    2.1245469 
C    -3.7705059    3.5328824    1.6023052 
O    -3.1183039    4.7355645    1.8961154 
N    -0.9476655    3.1158322    1.1963375 
C     0.0710606    2.5984267    0.5242338 
H     0.3813482   -0.7221374   -0.4529896 
H     1.7772951    0.2127554    0.0748558 
H     0.9857773    0.5989803   -1.4485881 
H    -1.8775439    0.0288632    0.9554262 
H    -2.7998927    2.4581550    3.1862851 
H    -3.6276036    1.4191274    2.0103774 
H    -4.7511077    3.5672287    2.0831009 
H    -3.9338532    3.4107789    0.5216588 
H    -2.1965633    4.6149904    1.6217729 
H     0.8948170    3.2310146    0.2295037 
