19
Energy = -419.0633202204
C     0.5428772    1.3721171   -0.0942200 
C     0.3228780    0.4739132   -1.2578736 
N     1.1501941   -0.5351430   -1.5042505 
N     0.6846098   -1.1337097   -2.6085379 
C     1.3701570   -2.2895960   -3.1416159 
C     2.8649614   -2.0483435   -3.2642549 
O     3.4987509   -1.9591807   -2.0197435 
C    -0.4257851   -0.5335130   -3.0715923 
C    -0.6981176    0.5155996   -2.2247383 
H     1.4276052    1.0580243    0.4576284 
H    -0.3115215    1.3538940    0.5853965 
H     0.6849601    2.4062511   -0.4146250 
H     0.9360083   -2.5007070   -4.1199054 
H     1.1943855   -3.1490164   -2.4885840 
H     3.0299543   -1.1464692   -3.8715108 
H     3.3091038   -2.8921738   -3.7978304 
H     2.9703378   -1.3387142   -1.4945713 
H    -0.9307207   -0.8907197   -3.9545298 
H    -1.5151796    1.2139429   -2.2943554 
