19
Energy = -419.0599882961
C     0.8736684    0.4477557   -0.5211035 
N    -0.2358658    0.1025734   -1.3665103 
C    -1.0410629   -0.9717262   -1.2822334 
C    -1.9470137   -0.8752097   -2.3133622 
C    -1.6061748    0.3141981   -2.9814502 
C    -2.2407987    0.9321958   -4.1831974 
C    -1.2307426    1.5835775   -5.1189384 
O    -0.5849946    2.6874886   -4.5384985 
N    -0.5648876    0.8935555   -2.3892711 
H     1.7964755    0.4760153   -1.1013203 
H     0.9646087   -0.3016333    0.2624242 
H     0.7099249    1.4253970   -0.0676989 
H    -0.9099438   -1.7128849   -0.5107234 
H    -2.7383858   -1.5649305   -2.5542008 
H    -2.9652937    1.6914810   -3.8705527 
H    -2.7976677    0.1629889   -4.7245220 
H    -1.7449078    1.9508554   -6.0099346 
H    -0.5040292    0.8261049   -5.4469532 
H    -0.2288378    2.3782022   -3.6947604 
