18
Energy = -435.1043217694
N     0.9672415    1.1004765    0.3414551 
C     1.9745086    0.6689551   -0.5049749 
C     2.9363988   -0.3105254   -0.3756882 
C     3.7182841   -0.2090993   -1.5462039 
C     4.9030527   -1.0291899   -1.9389444 
C     5.0451745   -1.1917816   -3.4457879 
O     5.2945510    0.0232975   -4.1042275 
N     3.2704980    0.7539504   -2.3348965 
N     2.2120958    1.2759642   -1.6838740 
H     1.7481248    2.0823008   -2.0586913 
H     0.8637136    0.5093488    1.1496449 
H     0.0746632    1.2325551   -0.1097769 
H     3.0450618   -1.0120544    0.4346515 
H     4.8242197   -2.0149380   -1.4720172 
H     5.8146555   -0.5647286   -1.5479748 
H     4.1416490   -1.6782781   -3.8409509 
H     5.8912171   -1.8481266   -3.6618188 
H     4.5781603    0.6173095   -3.8421273 
