13
Energy = -489.6434468099
O     0.9318684    0.1450856    0.0908302 
C     1.0811004    1.1134395   -0.8404264 
C     0.3136560    1.3816115   -1.9489509 
N     0.8638576    2.4503734   -2.5687927 
H     0.5319260    2.8828980   -3.4119396 
N     1.9419411    2.8894783   -1.9284732 
C     2.0866974    2.0911324   -0.8797510 
O    -0.7961009    0.6792018   -2.3232765 
C    -1.4848304    0.9983798   -3.4280593 
O    -1.2284385    1.8890891   -4.1815194 
H     0.1646621   -0.3884360   -0.1256403 
H     2.8993484    2.2352101   -0.1862565 
H    -2.3262346    0.3039844   -3.5262033 
