14
Energy = -473.6727611431
O     0.7738684    0.6321619    0.1116323 
C    -0.1354304    1.6240506    0.0970043 
C    -0.0481577    2.7181847    0.9503494 
C    -1.0425523    3.6766766    0.8434383 
O    -0.9946873    4.7486449    1.6488947 
N    -2.0526967    3.6105704   -0.0095505 
C    -2.1060485    2.5529718   -0.8096919 
O    -3.1343330    2.4984728   -1.6689118 
C    -1.1814391    1.5235509   -0.8095223 
H     1.4388654    0.8178868    0.7778782 
H     0.7511364    2.8332845    1.6701800 
H    -1.7589747    5.2906845    1.4269393 
H    -3.6583801    3.2921173   -1.5189655 
H    -1.2694617    0.6835183   -1.4813827 
