13
Energy = -497.6577156727
O     0.5340122    0.1889951    0.0457588 
C    -0.3973675    0.4892447    0.9683042 
N    -0.0650987    1.3246733    1.9305756 
C    -0.9746601    1.6330261    2.8524872 
C    -2.2579424    1.1196963    2.8534844 
O    -3.1448848    1.4661385    3.8148005 
C    -2.5696193    0.2409286    1.8205451 
F    -3.8066728   -0.2724783    1.7966543 
C    -1.6564991   -0.0973460    0.8557731 
H     1.3235350    0.6835453    0.2905479 
H    -0.6792784    2.3227493    3.6356468 
H    -3.9751741    1.0114142    3.6527232 
H    -1.9028438   -0.7800762    0.0555281 
