14
Energy = -473.6547611596
O     0.4302916    0.0681214    0.1708236 
C     1.4704204    0.3341367   -0.6755295 
C     2.3579178    1.3751195   -0.5532217 
N     3.3585207    1.5879443   -1.4112880 
C     3.4871226    0.7495320   -2.4185182 
O     4.4972373    0.9663334   -3.2821230 
C     2.6497245   -0.3403446   -2.6455228 
C     1.6209744   -0.5495273   -1.7535955 
O     0.7753905   -1.5795169   -1.9096727 
H     0.3977199    0.7242125    0.8684510 
H     2.2664824    2.0769735    0.2728887 
H     4.9557477    1.7507589   -2.9629645 
H     2.7989212   -0.9989288   -3.4890283 
H     0.1341752   -1.5512745   -1.1915732 
