16
Energy = -437.7716056945
C     0.9214641    0.7256504    0.0477356 
C     2.0543386   -0.2481799    0.1236338 
C     2.1442184   -1.1432402    1.1829067 
C     3.2307860   -2.0033940    1.2155253 
O     3.3424880   -2.8794387    2.2269559 
N     4.1855831   -2.0233748    0.2971535 
C     4.0853277   -1.1664114   -0.7068241 
O     5.0565376   -1.1974070   -1.6332437 
C     3.0459519   -0.2582755   -0.8482042 
H    -0.0077485    0.2792088    0.4033020 
H     0.7708310    1.0828096   -0.9706806 
H     1.1284459    1.5945607    0.6779918 
H     1.3983921   -1.1844014    1.9645349 
H     4.1491592   -3.3804540    2.0683349 
H     5.6728333   -1.8856807   -1.3622424 
H     3.0237684    0.4107550   -1.6970613 
