16
Energy = -437.7391714699
C     0.9513926    0.9475822   -0.0218366 
O    -0.1095942    1.5758497    0.6625529 
C    -0.1764834    2.9150330    0.6220290 
C    -1.2382196    3.5103346    1.3126909 
C    -1.3339955    4.8807202    1.2906842 
N    -0.4772675    5.6823400    0.6512721 
C     0.5133919    5.0986571    0.0083013 
O     1.3810268    5.8950689   -0.6384835 
C     0.7262314    3.7219381   -0.0497401 
H     1.9204927    1.2610614    0.3762706 
H     0.9138180    1.1618447   -1.0935869 
H     0.8239275   -0.1203474    0.1375159 
H    -1.9523337    2.8961165    1.8426275 
H    -2.1440653    5.3765993    1.8152868 
H     1.0751114    6.7961471   -0.4859560 
H     1.5687692    3.3378507   -0.6038638 
