13
Energy = -497.6757711178
O     0.5978921    0.1962273    0.0159341 
C     1.4169941    0.3695838   -1.0349935 
C     1.3923084   -0.5978004   -2.0358938 
C     2.2442773   -0.3885366   -3.0964217 
F     2.2605997   -1.2827465   -4.0787701 
N     3.0633445    0.6242842   -3.2461418 
C     3.0655848    1.5292837   -2.2790809 
O     3.8972685    2.5694818   -2.4187834 
C     2.2670143    1.4611797   -1.1465678 
H     0.7057918    0.9231753    0.6331204 
H     0.7441735   -1.4589011   -1.9814918 
H     4.3597393    2.4411867   -3.2542012 
H     2.3185009    2.2356151   -0.3927176 
