15
Energy = -362.5387260791
C     0.9210957    0.7356634   -0.1190553 
C     0.7238684   -0.5020740    0.4828662 
C    -0.5750409   -0.8684035    0.8103531 
N    -1.6471369   -0.1216960    0.5905596 
C    -1.4362238    1.0609459    0.0123394 
C    -0.1945686    1.5346316   -0.3584695 
O     2.1138902    1.2279031   -0.4920727 
C     3.2555929    0.4350805   -0.2563084 
H     1.5414024   -1.1748266    0.6986648 
H    -0.7495608   -1.8315967    1.2813313 
H    -2.3173919    1.6696837   -0.1661119 
H    -0.0739901    2.5031245   -0.8255558 
H     4.1033557    1.0081675   -0.6237986 
H     3.1989297   -0.5142232   -0.7966420 
H     3.3881960    0.2366769    0.8110893 
