16
Energy = -437.7602640641
C     0.8940997    0.5899492    0.0051281 
C    -0.2327607    1.4700575   -0.4244912 
C    -0.0925823    2.4452863   -1.3919058 
N    -1.0631681    3.2576294   -1.8126998 
C    -2.2490390    3.1135663   -1.2576486 
O    -3.2343988    3.9274464   -1.6749953 
C    -2.5372140    2.1751668   -0.2727198 
C    -1.5091777    1.3490672    0.1411744 
O    -1.6774685    0.4048022    1.0895523 
H     0.6610525   -0.4647131   -0.1576937 
H     1.1067353    0.7051744    1.0703998 
H     1.7996075    0.8302995   -0.5522337 
H     0.8761670    2.5826863   -1.8643879 
H    -2.8404186    4.4941816   -2.3473766 
H    -3.5347017    2.1072272    0.1440302 
H    -2.5861265    0.4184984    1.3978023 
