13
Energy = -411.6434869378
N     0.8973535    0.7194579    0.0615003 
H     1.0695986    0.9499435    1.0239379 
C     0.1540904    1.4284645   -0.8422319 
N     0.0992594    0.8933717   -2.0275733 
C     0.8528694   -0.2497952   -1.9191904 
C     1.3650038   -0.3771378   -0.6085918 
N     2.1240390   -1.3594850   -0.1776320 
C     2.3756628   -2.2588699   -1.1268916 
C     1.8790152   -2.1532170   -2.4310222 
N     1.1125197   -1.1526816   -2.8504251 
H    -0.3327426    2.3511711   -0.5615791 
H     2.9971022   -3.1028845   -0.8499883 
H     2.1219706   -2.9217807   -3.1569375 
