16
Energy = -437.7605192363
C     0.8214216    0.5117527    0.0209064 
C     1.2134654   -0.6652243   -0.8141698 
C     0.4110521   -1.1212218   -1.8543483 
O    -0.7577152   -0.5232788   -2.1572102 
C     0.7993345   -2.2195703   -2.6181231 
C     1.9941204   -2.8251941   -2.3018706 
N     2.7902489   -2.4199702   -1.3136617 
C     2.3964230   -1.3769713   -0.6077783 
O     3.2127236   -0.9800567    0.3879880 
H    -0.1156198    0.3335155    0.5595594 
H     0.6936275    1.4149697   -0.5857404 
H     1.5862250    0.7260225    0.7631624 
H    -0.9043537    0.2126954   -1.5580562 
H     0.1739600   -2.5717224   -3.4262657 
H     2.3379464   -3.6841074   -2.8686049 
H     3.9606377   -1.5870185    0.3656840 
