15
Energy = -490.8380467621
C     0.7389362    0.7369289   -0.0853608 
O     1.6865027   -0.3207857   -0.0412756 
C     2.9685727    0.0475446   -0.1311986 
C     3.6299498    1.1113189   -0.7106801 
O     3.0911334    2.1613730   -1.3927858 
C     4.9849983    0.8342284   -0.4605086 
O     5.9923690    1.6369776   -0.8563594 
N     5.1690235   -0.2853505    0.1997148 
N     3.9178738   -0.7501476    0.4020793 
H    -0.2332780    0.2758975    0.0711832 
H     0.7598190    1.2442100   -1.0502004 
H     0.9369446    1.4625021    0.7072375 
H     3.7921146    2.7965928   -1.5523774 
H     6.8160510    1.2360836   -0.5649194 
H     3.7690505   -1.6257153    0.8653258 
