16
Energy = -433.9314454975
C     0.9183740    0.7930843    0.0132785 
C     1.4753969    0.3451113   -1.2936782 
N     0.7545889   -0.4516581   -2.0664123 
C     1.2569164   -0.8449912   -3.2358505 
N     0.4478530   -1.6232032   -4.0383260 
C     2.5265607   -0.4322133   -3.6335472 
N     3.2607350    0.3592023   -2.8629397 
C     2.7488893    0.7461645   -1.7175736 
O     3.4795335    1.5559356   -0.9207643 
H    -0.0663045    0.3546852    0.1601915 
H     0.8394779    1.8822422    0.0478141 
H     1.5747357    0.5019344    0.8364506 
H    -0.3098138   -2.0591694   -3.5394935 
H     0.9170581   -2.2380238   -4.6801887 
H     2.9530912   -0.7408228   -4.5824092 
H     4.3099936    1.7132978   -1.3816913 
