12
Energy = -422.4802388820
O     0.6575448    0.1886371    0.2126301 
C    -0.6330243    0.5175809    0.3589661 
N    -0.9447972    1.7997587    0.2986337 
C    -2.2260124    2.1305812    0.4438683 
C    -3.2401606    1.2170320    0.6529408 
C    -2.8661909   -0.1166994    0.7092008 
F    -3.7983410   -1.0452994    0.9090778 
C    -1.5566329   -0.5057707    0.5640057 
H     1.1334337    1.0168694    0.0835838 
H    -2.4523608    3.1901062    0.3896914 
H    -4.2721469    1.5149558    0.7677082 
H    -1.2578376   -1.5428437    0.6062282 
