14
Energy = -432.6839636589
N     1.0389165    0.7633990    0.1173159 
C     0.4317719   -0.4667326   -0.0302894 
N     0.6031016   -1.2750773   -1.0539500 
C    -0.2829137   -2.2640286   -0.7872514 
C    -0.9784184   -2.1039505    0.3732933 
N    -0.4895830   -0.9140789    0.8844996 
H    -0.8750260   -0.3579520    1.6244076 
C    -1.7846867   -3.2615745    0.5349000 
C    -1.5098838   -4.0131107   -0.5707698 
O    -0.5854112   -3.4230167   -1.3918976 
H     1.7031575    0.9196656   -0.6250127 
H     1.4663919    0.9113822    1.0193263 
H    -2.4808570   -3.5251120    1.3137028 
H    -1.8940758   -4.9587301   -0.9100678 
