17
Energy = -451.1475149889
C     0.9247671    0.7155354   -0.1985121 
O     0.5378925    0.9972523    1.1309152 
C     0.8861426    2.2115020    1.5923284 
C     0.5980718    2.6870995    2.8400826 
N    -0.0762980    2.1992769    3.9626815 
N     1.1527352    3.9706498    2.8354455 
H     1.1991620    4.5700930    3.6390496 
C     1.7137807    4.1707604    1.6308921 
N     2.4247404    5.3163646    1.3107809 
N     1.5648040    3.1286289    0.8439001 
H     0.4751457    1.4219382   -0.9000217 
H     0.5702700   -0.2921095   -0.4064689 
H     2.0100925    0.7604142   -0.3130680 
H     0.3779781    1.3947033    4.3713671 
H    -1.0361508    1.9543975    3.7643955 
H     1.9156027    6.1725772    1.4737961 
H     2.7331205    5.2714604    0.3514725 
