16
Energy = -471.0098574723
C     0.9456561    0.6737718   -0.2777780 
O     0.2095285    0.0654163    0.7639364 
C     0.7870406   -1.0021354    1.3397974 
C     0.2545590   -1.7220158    2.3711330 
N    -0.9143479   -1.6585726    3.1314637 
N     1.2151875   -2.7158121    2.6085350 
C     2.2070659   -2.5197730    1.7359076 
O     3.2785068   -3.3216235    1.7206387 
N     2.0007122   -1.4989725    0.9462967 
H     0.3388564    1.5071431   -0.6258682 
H     1.1238835   -0.0257236   -1.0974322 
H     1.9104145    1.0395776    0.0809768 
H    -0.9999983   -0.7951435    3.6484827 
H    -1.7501886   -1.7858316    2.5788039 
H     1.1509010   -3.4313330    3.3093866 
H     3.8524767   -2.9969381    1.0209390 
