14
Energy = -432.6948825241
O     0.3750394   -0.4143327   -0.3252299 
C     0.0190013    0.6731719   -1.0281378 
C    -1.0056153    1.5340168   -0.7157839 
N    -0.9559618    2.4729462   -1.7398744 
C    -1.5414489    3.6206445   -2.2345086 
C    -0.8618280    3.9464012   -3.3636912 
N     0.1324118    3.0066961   -3.5612603 
C     0.0666991    2.0998723   -2.5518337 
N     0.6938301    1.0111241   -2.1650137 
H     1.1188230   -0.8066571   -0.7902406 
H    -1.7150842    1.5579016    0.0889862 
H    -2.3744205    4.1106345   -1.7645037 
H    -1.0077087    4.7697134   -4.0391533 
H     0.7952133    2.9866543   -4.3111520 
