16
Energy = -433.8696575390
O     0.8359527    0.1845472    0.2038616 
C     0.7399125   -0.1267847    1.5016731 
N     0.0792294    0.5142051    2.4116882 
C     0.3007120   -0.1980014    3.5805981 
C     1.1037341   -1.2702528    3.3348556 
N     1.3856319   -1.2142846    1.9807129 
H     1.9114902   -1.8872345    1.4535926 
N     1.5873337   -2.3317488    4.0940724 
C     2.8851359   -2.1634781    4.7502424 
C     1.6283533   -2.1435726    5.5265521 
H     0.3089658    0.9791277    0.0770517 
H    -0.1510681    0.0985852    4.5122256 
H     3.3897377   -1.2143609    4.6052406 
H     3.5156740   -3.0437637    4.7525955 
H     1.3102329   -1.1826776    5.9158466 
H     1.3329230   -3.0047778    6.1126830 
