13
Energy = -448.7433718986
O     0.8694046    0.2459500    0.0882766 
C     0.8630862    1.3708349    0.8057081 
N    -0.0966189    1.7559830    1.6107197 
C     0.3958993    2.9440815    2.0764698 
C     1.6193029    3.2634314    1.5641029 
N     1.9302787    2.2131451    0.7166449 
H     2.7438927    2.0696855    0.1480314 
N     2.1082515    4.4364827    2.0233528 
C     1.1554519    4.8443024    2.8391081 
N     0.0894642    3.9794863    2.9131401 
H    -0.7341230    4.1018926    3.4723190 
H     0.0441362   -0.2089642    0.2813333 
H     1.1792411    5.7603507    3.4065565 
