14
Energy = -411.8847661528
N     0.8933585    0.7328255    0.2247069 
C     0.9888823   -0.6580317    0.2021307 
C     0.4948553   -1.6078954   -0.6375400 
N    -0.3608909   -1.3575668   -1.7244471 
N     0.9818156   -2.8624024   -0.2848876 
C     1.7366505   -2.6462694    0.7444416 
O     2.4174331   -3.5563214    1.4540135 
N     1.7925678   -1.3431998    1.1001575 
H     2.3801151   -0.9371450    1.8050761 
H     0.4913070    1.0429403   -0.6497802 
H     0.3026161    1.0700895    0.9750613 
H     0.0332167   -1.7176260   -2.5843356 
H    -1.2560012   -1.8130446   -1.5985649 
H     2.2355724   -4.4081459    1.0467140 
