14
Energy = -395.6116874748
N     0.8987693    0.8751153    0.0800557 
H     1.7837493    0.5786412   -0.2884838 
C     0.6134370    2.1036080    0.6086406 
N    -0.6133167    2.2290265    1.0158842 
C    -1.1977193    1.0109782    0.7475940 
C    -0.2560717    0.1406778    0.1548052 
C    -0.6142303   -1.1454642   -0.2053218 
C    -1.9287270   -1.4872514    0.0587596 
C    -2.7937337   -0.5582911    0.6504609 
N    -2.4564070    0.6741168    0.9971445 
H     1.3674863    2.8752496    0.6653512 
H     0.0769876   -1.8433837   -0.6621428 
H    -2.2990952   -2.4733790   -0.1891547 
H    -3.8215626   -0.8452329    0.8498273 
