14
Energy = -428.8462944071
N     0.9451890    0.5959561   -0.0413620 
C    -0.3773686    0.1856912   -0.0094655 
N    -1.4084245    0.7861892   -0.5392913 
N    -2.5354670    0.0021041   -0.3842778 
C    -2.1166375   -1.0440616    0.2640230 
N    -2.5888994   -2.2165512    0.7812803 
H    -3.5438277   -2.5157835    0.7568802 
C    -1.5257117   -2.8949153    1.3474527 
C    -0.3956801   -2.1661113    1.1968385 
N    -0.7749635   -1.0100147    0.5250356 
H     1.0208860    1.4357273   -0.5973968 
H     1.3310084    0.7671099    0.8779433 
H    -1.6551984   -3.8554576    1.8150430 
H     0.6154959   -2.3776176    1.4916339 
