13
Energy = -448.6891683498
N     0.7537463    0.6142885    0.0512898 
C     0.6879403   -0.3052026   -0.9613180 
N    -0.2270961   -1.2512597   -1.0487329 
C     0.1880509   -1.9466380   -2.1323885 
C     1.3157793   -1.4533903   -2.7201942 
N     1.6378327   -0.3467447   -1.9501528 
H     2.4965168    0.1709949   -1.9465961 
C     1.5121519   -2.2842421   -3.8318880 
N     0.5765568   -3.2087638   -3.8772066 
O    -0.2808616   -2.9941257   -2.7962000 
H    -0.0661204    0.5867529    0.6359051 
H     1.0018376    1.5514190   -0.2217436 
H     2.2711048   -2.2909775   -4.5990338 
