14
Energy = -428.8545550228
N     0.2770462    0.0732229   -0.4698625 
C     1.4157923    0.1723789   -1.2435795 
N     2.4827244    0.8534817   -0.9540859 
C     3.2718386    0.7432052   -2.0902380 
C     2.6371952   -0.0262984   -3.0361868 
N     3.4642725   -0.1881288   -4.0820314 
H     3.3138451   -0.6237107   -4.9712809 
N     4.6164138    0.4960357   -3.8743669 
C     4.5191638    1.0464722   -2.6717815 
N     1.4459448   -0.4405141   -2.4944723 
H     0.6278516   -0.7580376   -2.9809417 
H     0.4054603    0.5602420    0.4040473 
H    -0.0334112   -0.8738768   -0.3097332 
H     5.3426765    1.6291042   -2.2906438 
