17
Energy = -414.0047269209
N     0.5861753    0.6027533    0.0536754 
C     1.6109093    0.5664964    0.9967632 
C     2.8232441    1.1971333    1.0674103 
N     3.4430679    0.9132659    2.2559029 
C     2.6300691    0.1190091    2.8973345 
N     1.4991646   -0.1185477    2.1796201 
H     0.6915971   -0.6357404    2.4762299 
N     3.3369384    2.0326263    0.0635792 
C     4.1354053    3.1692051    0.5083390 
C     4.7823591    2.0075934   -0.1287805 
H     0.7887094    1.3311653   -0.6179642 
H     0.4888911   -0.2696601   -0.4505693 
H     2.8047836   -0.3226899    3.8657453 
H     4.2713573    3.2759984    1.5783689 
H     3.9819102    4.0848659   -0.0505796 
H     5.3455409    1.3473409    0.5207157 
H     5.1094534    2.0607853   -1.1605812 
