17
Energy = -512.9371729157
C     0.8382380    0.6870488   -0.1146647 
C     0.8291329   -0.3504081   -1.0412826 
C     1.8900751   -0.3961231   -1.9352531 
N     2.8898665    0.4674432   -1.9610889 
C     2.8686394    1.4467594   -1.0623868 
C     1.8779801    1.6137981   -0.1161084 
O     3.8896298    2.3173660   -1.0985802 
O     1.9146435   -1.3836250   -2.8447112 
O    -0.1134531    0.8675811    0.8127486 
C    -1.1840120   -0.0495965    0.8515955 
H     0.0547589   -1.0985387   -1.0928774 
H     1.9042840    2.4260266    0.5941540 
H     4.4646098    2.0327489   -1.8163137 
H     2.7125448   -1.2520550   -3.3673793 
H    -1.8292243    0.2744885    1.6645512 
H    -0.8298494   -1.0644306    1.0521341 
H    -1.7483849   -0.0406496   -0.0848864 
