11
Energy = -707.5557547573
C     0.8947250    0.6826325   -0.0421544 
C    -0.3145269    0.7807913   -0.7080667 
C    -0.8813558   -0.3906622   -1.1873780 
N    -0.3359095   -1.5930617   -1.0458265 
C     0.8241936   -1.6588991   -0.4029811 
C     1.4861050   -0.5581276    0.1198915 
Cl    1.6581885    2.0944161    0.5806500 
H    -0.7989215    1.7371503   -0.8488756 
H    -1.8294599   -0.3506092   -1.7146500 
H     1.2592297   -2.6475340   -0.2940651 
H     2.4303349   -0.6637624    0.6359801 
