14
Energy = -584.9666946523
C     1.0277424    0.9477755   -0.0684526 
C     1.6973561    0.2917723    0.9508022 
C     1.9795152    1.0011570    2.1082322 
N     1.6441976    2.2727866    2.2918745 
C     1.0031727    2.8868282    1.3047051 
C     0.6709060    2.2740202    0.1057573 
C     0.7346500    0.2412326   -1.3627334 
F     0.5251360   -1.0660784   -1.1784941 
F    -0.3455275    0.7415732   -1.9701792 
F     1.7599732    0.3595780   -2.2187284 
H     1.9868312   -0.7459244    0.8533854 
H     2.5000933    0.5177702    2.9286271 
H     0.7362134    3.9245567    1.4767467 
H     0.1420165    2.8173036   -0.6655770 
