11
Energy = -339.3102801661
C     0.7457131    0.4535989    0.0210496 
C     1.5772116    1.5414740   -0.1601077 
N     1.3605437    2.4243736   -1.1358262 
C     0.3229926    2.2180087   -1.9194444 
C    -0.5130853    1.1110378   -1.7259766 
N    -0.3064382    0.2353247   -0.7656227 
O    -1.5586196    0.9329936   -2.5423733 
H     0.9221356   -0.2642738    0.8148681 
H     2.4309516    1.7105959    0.4853455 
H     0.1268902    2.9226552   -2.7199419 
H    -2.0052203    0.1292564   -2.2530707 
