14
Energy = -887.7230327743
C     0.8028670    0.5765630   -0.0103538 
C     1.9268862    1.0199160   -0.6895483 
N     3.0388538    0.3128700   -0.7930062 
C     3.0279695   -0.8746656   -0.2089859 
C     1.9021221   -1.3392049    0.4644020 
N     0.7947820   -0.6193454    0.5675694 
S     1.9289917    2.5907176   -1.5209736 
O     2.0847292    2.3512658   -2.9168268 
O     0.8599069    3.3683249   -1.0015883 
O     3.2611711    3.2381438   -0.9651665 
H    -0.0842350    1.1931230    0.0669851 
H     3.9309005   -1.4713388   -0.2751479 
H     1.9025007   -2.3170749    0.9340150 
H     4.0125817    2.8361946   -1.4208692 
