10
Energy = -264.0830411554
N     0.6835375    0.2208391    0.0344067 
C    -0.3316663    1.0541518   -0.1486051 
C    -0.5134143    2.2181399    0.5870137 
C     0.4270522    2.4951223    1.5513759 
C     1.4649777    1.5832564    1.6937445 
N     1.5846184    0.4862059    0.9584002 
H    -1.0285558    0.7643611   -0.9270583 
H    -1.3589857    2.8680928    0.4005457 
H     0.3720594    3.3779917    2.1756824 
H     2.2463860    1.7287600    2.4312175 
