13
Energy = -600.9978087289
N     0.7139472    1.1339554   -0.1032850 
C     0.4150517    1.9832223    0.8683604 
N    -0.4416680    1.7816236    1.8633935 
C    -1.0554132    0.6066061    1.8767110 
C    -0.8254022   -0.3648553    0.9134288 
C     0.0877981   -0.0328239   -0.0680689 
C     0.4417622   -0.9902861   -1.1885777 
F     1.7423961   -1.2767929   -1.1809864 
F    -0.2292445   -2.1422281   -1.0705262 
F     0.1423615   -0.4675267   -2.3767119 
H     0.9230352    2.9418342    0.8480189 
H    -1.7576311    0.4317596    2.6857699 
H    -1.3286540   -1.3204938    0.9298300 
