11
Energy = -356.2844469156
N     0.8089501    0.4163205    0.0247435 
C     1.2113881    1.2878047   -0.8884428 
N     2.2538379    2.1074510   -0.8078545 
C     2.9656098    2.0428586    0.3096912 
C     2.6496342    1.1740439    1.3410043 
C     1.5379225    0.3686014    1.1377542 
C     1.1327863   -0.5654249    2.1530554 
N     0.8425631   -1.2989675    2.9895877 
H     0.6240307    1.3346830   -1.7995411 
H     3.8195109    2.7084791    0.3854216 
H     3.2293874    1.1210932    2.2518394 
