14
Energy = -887.7305129262
N     0.8347403    0.5418743    0.0712517 
C     0.0206257    1.1495863   -0.7819924 
N    -0.5727205    2.3228784   -0.6033077 
C    -0.3077941    2.9289354    0.5418857 
C     0.5281409    2.4134255    1.5095922 
C     1.0831758    1.1773831    1.2093418 
S    -1.1580010    4.4757383    0.7963600 
O    -2.5381058    4.1751457    0.9804912 
O    -0.4260038    5.2512941    1.7344326 
O    -0.9521954    5.1636311   -0.6087749 
H    -0.1804761    0.6399716   -1.7182427 
H     0.7350386    2.9467317    2.4264997 
H     1.7531478    0.6846389    1.9066476 
H    -1.4365995    4.6550586   -1.2747483 
