13
Energy = -600.9612520525
N     0.6868270   -0.1939187    0.2570770 
C    -0.4338560   -0.4121088   -0.4114433 
C    -0.5562381   -1.3901156   -1.3934616 
C     0.5526275   -2.1532315   -1.6642479 
C     1.6947684   -1.8700319   -0.9248068 
N     1.7541167   -0.9241524    0.0001482 
C    -1.8619849   -1.5736541   -2.1137333 
F    -1.8174772   -2.5944335   -2.9722508 
F    -2.8580609   -1.8093332   -1.2530689 
F    -2.1880524   -0.4761270   -2.8056569 
H    -1.2690125    0.2257448   -0.1450280 
H     0.5414846   -2.9349078   -2.4117345 
H     2.6124637   -2.4261842   -1.0763422 
