14
Energy = -378.5353189276
N     0.7621420    0.6697845    0.0999732 
C     0.7939040    1.6390413    0.9890861 
C     0.1657747    2.8778757    0.8075084 
C    -0.5135629    3.0559259   -0.3796843 
C    -0.4982540    1.9826697   -1.2644439 
N     0.1123454    0.8318574   -1.0420848 
O     0.2819797    3.7703321    1.7973186 
C    -0.3469776    5.0224433    1.6214450 
H     1.3429956    1.4429161    1.9034826 
H    -1.0358155    3.9681549   -0.6312731 
H    -1.0125580    2.0542955   -2.2167905 
H    -0.1378482    5.5957596    2.5207210 
H    -1.4284799    4.9078316    1.5066694 
H     0.0579717    5.5484403    0.7523860 
