11
Energy = -339.2703100439
N     0.7962723    0.6064207   -0.0653981 
C    -0.0244709    0.0195413   -0.9180757 
C     0.3229071   -0.2867393   -2.2342128 
C     1.5979784    0.0545544   -2.6317887 
C     2.3975643    0.6660890   -1.6804095 
N     2.0155069    0.9359616   -0.4374129 
O    -0.5142262   -0.8827396   -3.0991827 
H    -1.0126220   -0.2194443   -0.5318924 
H     1.9484873   -0.1473552   -3.6352937 
H     3.4120547    0.9624233   -1.9223718 
H    -1.3577054   -1.0534885   -2.6726787 
