14
Energy = -887.6923362114
N     0.9024817    0.6162063    0.0395477 
C     0.9270992   -0.6141387   -0.4561618 
C     1.1917144   -1.7439883    0.3058030 
C     1.4384334   -1.5246613    1.6404167 
C     1.3817551   -0.2197608    2.1123784 
N     1.1226748    0.8128266    1.3221096 
S     1.7949529   -2.8670847    2.7287076 
O     1.5181457   -2.4489436    4.0640425 
O     1.2469413   -4.0469930    2.1619064 
O     3.3718715   -2.9985719    2.5804330 
H     0.7224889   -0.6886123   -1.5176142 
H     1.1954725   -2.7397276   -0.1175599 
H     1.5345327    0.0064737    3.1607042 
H     3.7935090   -2.5350273    3.3143078 
