13
Energy = -903.7588412187
N     1.0389896    0.8976095    0.1807640 
C     0.4177108    0.4992266    1.2869128 
N     0.7312055   -0.5711175    2.0039680 
C     1.7514303   -1.2748503    1.5342772 
N     2.4474623   -0.9809082    0.4420374 
C     2.0354383    0.1151937   -0.1722634 
S     2.8954417    0.5113368   -1.7040351 
O     2.3232065   -0.3444652   -2.6892672 
O     2.9812237    1.9139962   -1.8692844 
O     4.3500553    0.0170045   -1.3484565 
H    -0.4148780    1.1051096    1.6293436 
H     2.0443599   -2.1631509    2.0845843 
H     4.3297032   -0.9364978   -1.1853144 
