11
Energy = -372.5324119465
N     0.3480187   -0.2514001    0.6860633 
C    -0.0995554   -0.5952584    1.8822640 
N     0.8142046   -1.2664468    2.6126960 
N     1.8741676   -1.3522531    1.8590911 
N     1.5673895   -0.7508161    0.7450861 
H     2.2195659   -0.6741873   -0.0177048 
O    -1.3197638   -0.2939636    2.2813052 
C    -1.6581610   -0.7290727    3.5930163 
H    -2.6819129   -0.4029015    3.7543388 
H    -0.9955524   -0.2781756    4.3330332 
H    -1.5895347   -1.8150338    3.6701014 
