8
Energy = -333.2686058620
N     0.7085194   -0.6892230    1.0261656 
C    -0.2026900   -0.2961599    0.1588854 
N     0.2250046   -0.3433996   -1.1175113 
N     1.4498037   -0.7811609   -1.0628847 
N     1.7012976   -0.9731696    0.2009267 
H     2.5913491   -1.3143579    0.5238701 
O    -1.4135260    0.1028219    0.5191563 
H    -1.8931244    0.3376155   -0.2808606 
