11
Energy = -881.6811381770
N     0.8664018    0.0203680    0.4017185 
C     0.3370018    0.8516947    1.2750903 
N    -0.6442280    0.2902366    2.0080193 
N    -0.7396529   -0.9323000    1.5921590 
N     0.1605968   -1.0567792    0.6440581 
H     0.3010958   -1.9227881    0.1469876 
S     0.7959368    2.5478501    1.4351570 
O     2.1282154    2.6955649    0.9853819 
O    -0.2835890    3.3235042    0.9282183 
O     0.8269750    2.6845398    3.0059088 
H    -0.0725098    2.8146469    3.3344922 
