16
Energy = -748.5258029145
N     0.8487909    0.6929085    0.2363047 
C     0.1355394   -0.1408284    0.9673699 
C    -1.2674671   -0.2378167    0.9914437 
C    -1.9273739    0.6482444    0.1497753 
N    -1.2400291    1.4956234   -0.5950752 
C     0.0923622    1.4799793   -0.5197062 
C    -3.4409763    0.6728821    0.0538112 
F    -3.8749812    1.6012285   -0.7850791 
F    -3.8999665   -0.5114962   -0.3656103 
F    -3.9808410    0.9137384    1.2533484 
N    -1.6701448   -1.2168088    1.8686611 
C    -0.5591978   -1.6889376    2.3523021 
N     0.5649046   -1.0862939    1.8528408 
H     1.5213531   -1.2903756    2.0837737 
H     0.6135077    2.1924276   -1.1489823 
H    -0.4935725   -2.4826718    3.0818816 
