17
Energy = -526.1134818913
N     1.0861111    0.7902708    0.0745450 
C     0.9119674    1.5809564    1.1286249 
C     1.3189011    1.3348146    2.4415363 
C     1.9784725    0.1131115    2.6314349 
N     2.1667525   -0.6940099    1.6022485 
C     1.7199345   -0.3230636    0.3969894 
O     2.4057240   -0.2203352    3.8382100 
C     3.0667935   -1.4724285    3.9670407 
N     0.9686769    2.3762077    3.2682662 
C     0.3708208    3.2215246    2.4807238 
N     0.3034031    2.8023510    1.1784173 
H    -0.1088762    3.2860266    0.4006647 
H     1.9034805   -1.0262432   -0.4087335 
H     3.3285457   -1.5522828    5.0188738 
H     3.9624270   -1.5035802    3.3463354 
H     2.4087572   -2.2902870    3.6730896 
H    -0.0433212    4.1696192    2.7898359 
