14
Energy = -503.8148394754
N     0.9821809    0.6760443    0.0487012 
C     1.3922934    0.5841927    1.2961465 
C     2.0101431    1.6016820    2.0479405 
C     2.1865728    2.8040733    1.3730429 
N     1.7818184    2.9276540    0.1098468 
C     1.2114391    1.8779331   -0.4764303 
C     2.8005589    3.9380515    2.0001681 
N     3.2948634    4.8380714    2.5175886 
N     2.3063890    1.1621843    3.3127900 
C     1.8863200   -0.0692798    3.3280181 
N     1.3260537   -0.4804447    2.1475566 
H     0.9393915   -1.3840057    1.9371631 
H     0.8971409    2.0214602   -1.5039427 
H     1.9576190   -0.7332939    4.1768908 
