17
Energy = -1035.261002627
N     1.0350366    0.6072928   -0.0628564 
C     1.2909996    1.3873519   -1.0944509 
C     0.9895872    1.1005333   -2.4294215 
C     0.3622482   -0.1153717   -2.6518871 
N     0.0928520   -0.9196296   -1.6464029 
C     0.4390947   -0.5275771   -0.4152362 
S    -0.1807897   -0.5372838   -4.3039576 
O    -0.0652208   -1.9297414   -4.5365321 
O    -1.4145285    0.1550406   -4.4849717 
O     0.9534231    0.1585874   -5.1422871 
N     1.3903058    2.1259357   -3.2527161 
C     1.9139577    3.0040155   -2.4437241 
N     1.8842164    2.6205449   -1.1336693 
H     2.2317921    3.1379909   -0.3447404 
H     0.2032742   -1.2178782    0.3862034 
H     1.0515512    1.0965655   -4.8689812 
H     2.3387104    3.9483053   -2.7489455 
