17
Energy = -732.4965516143
N     1.0486936    0.4871674    0.0728298 
C     0.8699051    0.7494735    1.3517097 
C     0.4946176   -0.1468712    2.3720783 
C     0.2842470   -1.4709546    1.9986363 
C     0.4642769   -1.7772527    0.6610396 
C     0.8398381   -0.7843815   -0.2491060 
C    -0.1186565   -2.5111587    3.0059025 
F    -0.2664855   -3.7157958    2.4393837 
F     0.7965371   -2.6366351    3.9706948 
F    -1.2801193   -2.2024331    3.5887028 
N     0.4112702    0.5050389    3.5780660 
C     0.7215393    1.7401060    3.3025707 
N     1.0077100    1.9561778    1.9867261 
H     1.2697117    2.8228705    1.5519611 
H     0.3151021   -2.7890797    0.3116500 
H     0.9767407   -1.0418969   -1.2933857 
H     0.7574933    2.5406811    4.0266962 
