18
Energy = -510.0688235394
N     0.6605741   -0.1046587    0.2586856 
C     0.2356947    0.8831432    1.0225677 
C    -1.0538728    1.1094071    1.5449135 
C    -2.0347114    0.1633182    1.2177065 
C    -1.6137381   -0.8931256    0.4101230 
C    -0.2989708   -0.9812842   -0.0300539 
O    -3.3145711    0.1689855    1.5945173 
C    -3.7892619    1.2206888    2.4214775 
N    -1.0643588    2.2688905    2.2990136 
C     0.1543896    2.7178595    2.2348444 
N     0.9828128    1.9359124    1.4869303 
H     1.9579771    2.0817819    1.2975046 
H    -2.3345976   -1.6494666    0.1301117 
H    -0.0072120   -1.8174329   -0.6568742 
H    -3.6765110    2.1873981    1.9309239 
H    -3.2527017    1.2468734    3.3698254 
H    -4.8417777    1.0048853    2.5905104 
H     0.5049586    3.6186629    2.7163018 
