15
Energy = -487.7870902459
N     1.0290034    0.8122692   -0.0359220 
C     2.2517122    0.4928183   -0.4044865 
C     3.1699572    1.2811641   -1.1275103 
C     2.7459257    2.5550029   -1.5047477 
C     1.4551990    2.9196689   -1.1276100 
C     0.6531837    2.0327731   -0.4098147 
C     3.5806021    3.4461711   -2.2384375 
N     4.2349306    4.1845312   -2.8311117 
N     4.3443196    0.6032732   -1.3203497 
C     4.1523400   -0.5488326   -0.7407478 
N     2.9198532   -0.6811748   -0.1720857 
H     2.5573401   -1.4766078    0.3230233 
H     1.0724097    3.8954943   -1.3925624 
H    -0.3487410    2.3323898   -0.1242060 
H     4.8819925   -1.3440108   -0.6983244 
