18
Energy = -1019.235831573
N     0.9344135    0.3817071    0.1556495 
C     0.0782749    0.4073582    1.1565456 
C    -0.0425058    1.4000626    2.1363802 
C     0.8217285    2.4826968    2.0681970 
C     1.7263579    2.4971613    1.0249270 
C     1.7431828    1.4365815    0.1095483 
S     0.7817432    3.7063047    3.3429082 
O     1.4989795    3.1641671    4.4498743 
O     1.1249436    4.9752753    2.8027701 
O    -0.7536439    3.7384626    3.6619654 
N    -1.0572263    1.0978732    3.0123844 
C    -1.5329509   -0.0413776    2.5848896 
N    -0.8941608   -0.5094807    1.4799281 
H    -1.0934538   -1.3593943    0.9819569 
H     2.4147115    3.3238759    0.9117856 
H     2.4568022    1.4520759   -0.7063827 
H    -1.0774925    2.8169271    3.8030145 
H    -2.3513995   -0.5773059    3.0408670 
