15
Energy = -271.3424775754
C     0.8697797    0.8312887   -0.0904449 
C     0.9459679    2.1631743   -0.4697271 
C     0.8418760    2.4962547   -1.8119466 
C     0.6655387    1.5041042   -2.7644109 
C     0.5919330    0.1631815   -2.3982506 
C     0.6934275   -0.1565995   -1.0472123 
C     0.4330155   -0.9093753   -3.4325233 
H     0.9441517    0.5596889    0.9558421 
H     1.0807316    2.9367727    0.2762179 
H     0.8943347    3.5339437   -2.1192841 
H     0.5807748    1.7736856   -3.8116318 
H     0.6306311   -1.1954174   -0.7414051 
H    -0.1059254   -0.5421222   -4.3068468 
H    -0.1076207   -1.7689973   -3.0342111 
H     1.4077530   -1.2673444   -3.7761008 
