13
Energy = -307.2416172455
C     0.8474851    0.7999826   -0.0617888 
C    -0.1172660   -0.0591685    0.4476107 
C    -0.6249913   -1.0629754   -0.3620630 
C    -0.1769456   -1.2101698   -1.6660828 
C     0.7888121   -0.3454911   -2.1675159 
C     1.3029360    0.6634880   -1.3616795 
O     1.2643122   -0.4418575   -3.4345843 
H     1.2524855    1.5887320    0.5607755 
H    -0.4688355    0.0534269    1.4650017 
H    -1.3779923   -1.7416299    0.0200345 
H    -0.5774415   -1.9978962   -2.2965685 
H     2.0545228    1.3276366   -1.7688786 
H     0.8293924   -1.1705107   -3.8809760 
