7
Energy = -258.0808844662
N     0.8597762    0.6125187   -0.0472886 
C    -0.0849916    1.0748462   -0.8442949 
N    -0.5574622    2.2713472   -0.4437507 
N     0.1013020    2.5771013    0.6322106 
N     0.9272039    1.5799742    0.8380884 
H     1.5633192    1.5633302    1.6184535 
H    -0.4354603    0.5500992   -1.7165132 
