12
Energy = -319.4608300797
N     0.7894396   -0.0283180    0.4168209 
C     1.4826187    0.4775098   -0.5926407 
N     1.2049391    1.5566635   -1.3076566 
C     0.0861267    2.1933077   -0.9508151 
C    -0.7270090    1.7743071    0.0744817 
C    -0.3270725    0.6172929    0.7581770 
N    -1.0568600    0.0826131    1.7675728 
H     2.3883443   -0.0599521   -0.8598430 
H    -0.1653048    3.0834183   -1.5200115 
H    -1.6306728    2.3094863    0.3367153 
H    -1.7700678    0.6284372    2.2118702 
H    -0.6203407   -0.6462123    2.3030211 
