12
Energy = -319.4142365998
N     0.7816075    0.1877106    0.0147411 
C    -0.3040662    0.9242676    0.1289781 
C    -1.3377482    0.6687413    1.0439354 
C    -1.1468308   -0.4405173    1.8527981 
C     0.0195941   -1.1627037    1.6743089 
N     0.9611649   -0.8681332    0.7864709 
N    -2.4204220    1.4949797    1.1428289 
H    -0.3653475    1.7741067   -0.5453658 
H    -1.8762925   -0.7354485    2.5980935 
H     0.2196239   -2.0400653    2.2798090 
H    -2.6072171    2.1128656    0.3734703 
H    -3.2378513    1.1446635    1.6091688 
