12
Energy = -319.4486098259
C     0.7264605    0.0572428    0.0352306 
C     1.3436855    1.2843775    0.3432510 
N     2.3609783    1.7346722   -0.3817086 
C     2.7610860    0.9670480   -1.3892985 
C     2.1568023   -0.2387832   -1.6904121 
N     1.1290180   -0.6888288   -0.9692699 
N     0.9508009    2.0338762    1.4158047 
H    -0.1075421   -0.3066510    0.6297929 
H     3.5940582    1.3351643   -1.9800551 
H     2.4947807   -0.8509233   -2.5180748 
H     0.0242704    1.8964469    1.7759080 
H     1.2921336    2.9793724    1.4285985 
