11
Energy = -281.3709811501
N     0.7579518    0.9939140    0.1270684 
C     0.4447796   -0.0819869    0.7963377 
N     1.5234375   -0.5968776    1.4422229 
H     1.5441923   -1.3775362    2.0735328 
C     2.5984739    0.2035094    1.1535231 
C     2.0994778    1.1806649    0.3350530 
N     3.8470631   -0.0584057    1.7286753 
H    -0.5321792   -0.5372961    0.8443809 
H     2.6351096    2.0049398   -0.1094675 
H     4.3838496   -0.7404526    1.2092302 
H     4.3955401    0.7835166    1.8136097 
