15
Energy = -466.9948948767
N     0.6722532    0.2236841    0.2337204 
C     1.5713508    1.0024275    0.8277574 
C     2.9361192    1.0487839    0.5661392 
C     3.3988622    0.1772223   -0.4309351 
N     2.5183464   -0.6133261   -1.0465984 
C     1.2360509   -0.5468680   -0.6863695 
N     4.6960096    0.1050397   -0.7748447 
N     3.5668719    1.9744302    1.3654907 
C     2.6077127    2.4729469    2.0914374 
N     1.3813622    1.9290233    1.8160827 
H     0.5035395    2.1571157    2.2475098 
H     0.5683395   -1.2144495   -1.2220680 
H     5.3516856    0.7536527   -0.3825518 
H     4.9579723   -0.4729263   -1.5510747 
H     2.7303851    3.2381795    2.8430435 
