15
Energy = -466.9912598916
N     0.7999146   -0.2149935    0.4590174 
C    -0.4675214   -0.5695427    0.5448851 
C    -1.2654775   -1.0730058   -0.4928210 
C    -0.6310748   -1.1935252   -1.7194087 
N     0.6395261   -0.8532761   -1.8531199 
C     1.2942401   -0.3908272   -0.7701135 
N     2.6084661   -0.0993180   -0.9534357 
N    -2.5446370   -1.3328252   -0.0414510 
C    -2.5168878   -1.0006512    1.2117890 
N    -1.2919613   -0.5303291    1.6309726 
H    -1.0417453   -0.2211831    2.5530023 
H    -1.1463663   -1.5620475   -2.6014073 
H     2.9262717   -0.0200666   -1.9011016 
H     3.0637918    0.4470797   -0.2467817 
H    -3.3518002   -1.0712342    1.8930461 
