16
Energy = -450.9517055980
N     0.8284460    0.5368361    0.0315998 
C     0.7399570    1.2896935   -1.0539757 
C     1.2715714    1.0419073   -2.3224197 
C     1.9959092   -0.1387825   -2.5213548 
C     2.1091964   -0.9514805   -1.3901456 
C     1.5245021   -0.5775339   -0.1812162 
N     2.4989042   -0.4509437   -3.7451554 
N     0.9772883    2.0678193   -3.1922607 
C     0.2870316    2.9094849   -2.4763612 
N     0.1080039    2.5019636   -1.1855670 
H    -0.3861203    2.9851084   -0.4572459 
H     2.6506890   -1.8881377   -1.4457250 
H     1.6333754   -1.2366006    0.6744046 
H     2.5244633    0.2891222   -4.4245487 
H     3.2235672   -1.1413267   -3.8076073 
H    -0.1171632    3.8439545   -2.8361032 
