16
Energy = -450.9522212629
N     0.8406581    0.4601873    0.2072769 
C     0.8072946    0.1784345    1.4873937 
C     0.7457964    1.0780094    2.5712613 
C     0.7197621    2.4269180    2.2665018 
C     0.7531693    2.7610142    0.9163349 
C     0.8104269    1.7698632   -0.0590539 
N     0.7322128    0.3916391    3.7671177 
C     0.7711705   -0.8676832    3.4248064 
N     0.8284402   -1.0716107    2.0722302 
H     0.7745366   -1.9466661    1.5833575 
N     0.7018225   -1.9147162    4.2998852 
H     0.6745455    3.1810864    3.0420498 
H     0.7345726    3.7990403    0.6101139 
H     0.8340957    2.0413472   -1.1086331 
H     1.2365059   -2.7337659    4.0638489 
H     0.8204933   -1.6225647    5.2561103 
