13
Energy = -452.4713967107
C     0.9055905    0.7709317   -0.0012704 
C     1.2336200    0.2605539   -1.2426940 
C     1.6535697    1.0975933   -2.2647418 
N     1.7575473    2.4083806   -2.0977579 
C     1.4436976    2.9075440   -0.9063478 
C     1.0155055    2.1380366    0.1676489 
N     1.1363730   -1.1799396   -1.4805877 
O     0.7675869   -1.8718541   -0.5568192 
O     1.4306470   -1.5834124   -2.5836894 
H     0.5795380    0.1068677    0.7870918 
H     1.9079589    0.6857662   -3.2334144 
H     1.5392774    3.9836093   -0.8021131 
H     0.7744521    2.6035948    1.1140227 
