13
Energy = -452.4706874445
C     0.8791916    0.4938021   -0.0358945 
C     0.6325754   -0.0767669    1.1953530 
C     1.4485415   -1.1347151    1.5693883 
N     2.4320913   -1.6089003    0.8134463 
C     2.6417028   -1.0352136   -0.3657885 
C     1.8914885    0.0274748   -0.8483199 
N     0.0468834    1.6211010   -0.4912198 
O    -0.8195489    2.0074572    0.2594625 
O     0.2884385    2.0810490   -1.5837123 
H    -0.1613600    0.2924321    1.8278795 
H     1.2989978   -1.6217771    2.5270849 
H     3.4512927   -1.4417796   -0.9625093 
H     2.0803904    0.4777038   -1.8118040 
