12
Energy = -468.5001827118
N     0.7799613    0.3212734    0.0446460 
C    -0.4847521   -0.0016019    0.2935246 
N    -1.2335916   -0.8843597   -0.3589093 
C    -0.6544096   -1.5128012   -1.3713629 
C     0.6604416   -1.2444782   -1.7074928 
C     1.3593471   -0.3076663   -0.9673698 
N     1.2985095   -1.9369355   -2.8223132 
O     0.6258454   -2.7370307   -3.4330373 
O     2.4539606   -1.6609659   -3.0551852 
H    -0.9592406    0.5134041    1.1224790 
H    -1.2321451   -2.2404112   -1.9291059 
H     2.3907023   -0.0724669   -1.2023771 
