12
Energy = -468.4634338029
N     0.8703099    0.5145464    0.0614579 
C     1.8594662   -0.0977157    0.6979657 
C     2.3578211    0.3776434    1.8995064 
C     1.8179734    1.5103784    2.4488674 
C     0.7888194    2.0916546    1.7195216 
N     0.3381642    1.6057812    0.5704964 
N     3.4544347   -0.3273223    2.5778072 
O     3.9035780   -1.3043483    2.0254437 
O     3.8242553    0.1236562    3.6371503 
H     2.2620524   -0.9896222    0.2366591 
H     2.1776643    1.9131885    3.3851502 
H     0.2958691    2.9916435    2.0668959 
