12
Energy = -468.4630379277
N     0.7791611    0.5407155   -0.0150087 
C    -0.4782301    0.8051905   -0.2655349 
C    -1.2356155    1.7934232    0.3405017 
C    -0.5698427    2.5383093    1.2854287 
C     0.7636859    2.2245593    1.5195809 
N     1.4155885    1.2564329    0.8867743 
N    -1.1171714   -0.0537163   -1.3011836 
O    -0.4695025   -0.9442071   -1.7776847 
O    -2.2650085    0.2291343   -1.5773754 
H    -2.2703464    1.9447273    0.0705306 
H    -1.0575168    3.3376681    1.8276701 
H     1.3521175    2.7690050    2.2486089 
