11
Energy = -484.5302761878
N     0.7743081    0.2302727    0.0558844 
C     0.0583523   -0.8721476   -0.1167371 
N    -0.3501435   -1.3506932   -1.2887188 
C     0.0581460   -0.6250347   -2.3011004 
N     0.7769009    0.4711004   -2.2922642 
C     1.0981376    0.8639922   -1.0626780 
N    -0.3500571   -1.1113674   -3.6422196 
O    -1.5258174   -1.0414207   -3.8942365 
O     0.5348690   -1.5275778   -4.3454063 
H    -0.2237813   -1.4325644    0.7683465 
H     1.6762467    1.7777615   -0.9739563 
