16
Energy = -599.9954211037
N     0.7357816    0.1007792    0.1471620 
C    -0.3514474   -0.6391052    0.1416549 
C    -0.8716595   -1.4443509    1.1839954 
C    -0.1315070   -1.4258880    2.3619061 
C     1.0092909   -0.6485061    2.4166756 
C     1.4044612    0.0813884    1.2962486 
N    -0.5146356   -2.2051389    3.5415479 
O    -1.2313792   -3.1595374    3.3632831 
O    -0.0726990   -1.8372280    4.6100991 
N    -2.0349620   -2.0485906    0.7843646 
C    -2.2127137   -1.6380537   -0.4402189 
N    -1.2410358   -0.7957611   -0.8883678 
H    -1.1755933   -0.3582787   -1.7903546 
H     1.5846069   -0.6176072    3.3305077 
H     2.3070605    0.6798492    1.3372722 
H    -3.0464095   -1.9232172   -1.0649148 
