16
Energy = -599.9973056814
N     0.8830123    0.7548180    0.0892758 
C    -0.0421527    1.4907897    0.6750040 
C    -1.4304098    1.4887442    0.4148016 
C    -1.9025311    0.6220531   -0.5648427 
C    -0.9528197   -0.1593685   -1.1926850 
C     0.4019376   -0.0609452   -0.8397430 
N    -2.0725841    2.3920437    1.2245260 
C    -1.1119188    2.9004058    1.9265293 
N     0.1294545    2.4207585    1.6640836 
H     0.9788009    2.7093770    2.1198588 
N    -1.2708384    3.9189005    2.9448441 
O    -0.2410728    4.2633890    3.4986789 
O    -2.3772083    4.3361080    3.1606714 
H    -2.9544514    0.5700267   -0.8141331 
H    -1.2405149   -0.8588315   -1.9663900 
H     1.1311733   -0.6843624   -1.3460154 
