14
Energy = -436.4459573442
C     0.8132384    0.5502262   -0.0384642 
C     1.5492425    0.1296447   -1.1378963 
C     2.7051314    0.8034879   -1.5083116 
C     3.1324683    1.9019203   -0.7818310 
C     2.3831075    2.3032420    0.3099530 
C     1.2281014    1.6471713    0.6974595 
N     2.8294487    3.4668168    1.0847831 
O     3.8455090    4.0216780    0.7265301 
O     2.1540420    3.7998850    2.0341642 
H    -0.0874892    0.0224433    0.2476230 
H     1.2198312   -0.7290059   -1.7098422 
H     3.2766151    0.4729391   -2.3661419 
H     4.0270513    2.4490733   -1.0422860 
H     0.6791283    2.0011916    1.5581685 
