15
Energy = -325.4228762773
C     0.8218891    0.8289904    0.0011902 
C     2.0040509    1.1760550    0.6542251 
C     2.7937166    2.1517580    0.0430218 
N     2.4960361    2.7596836   -1.0969120 
C     1.3647788    2.4115561   -1.6969505 
C     0.4981926    1.4529460   -1.1864838 
C     2.4497589    0.5868479    1.9140481 
C     1.8131663   -0.3318672    2.6348468 
H     0.1629754    0.0770996    0.4183185 
H     3.7250735    2.4521234    0.5173417 
H     1.1368586    2.9191020   -2.6291370 
H    -0.4124477    1.2045164   -1.7168072 
H     3.4043960    0.9591403    2.2764261 
H     0.8573200   -0.7468579    2.3375175 
H     2.2354480   -0.7019170    3.5596507 
