14
Energy = -341.4595002717
N     0.8470689    0.5907532    0.0530337 
C     2.1165337    0.7372107   -0.2811366 
N     3.1421171   -0.0260999    0.0860212 
C     2.8368733   -1.0466494    0.8787866 
C     1.5435543   -1.3017834    1.2961209 
C     0.5455182   -0.4389407    0.8516877 
C    -0.8492220   -0.6390582    1.2467544 
C    -1.8455186    0.1481234    0.8554832 
H     2.3506145    1.5763553   -0.9299272 
H     3.6592496   -1.6836038    1.1911188 
H     1.3142736   -2.1391462    1.9427770 
H    -1.0410278   -1.4878131    1.8954689 
H    -1.6524150    0.9945493    0.2080676 
H    -2.8637657   -0.0367749    1.1717920 
