14
Energy = -436.5609536541
C     1.2206144    0.8386674    0.4225297 
C    -0.1193560    0.7033655    0.0977647 
C    -0.8335951    1.8413311   -0.2456651 
N    -0.2967328    3.0557941   -0.2787431 
C     0.9884750    3.1767912    0.0340609 
C     1.7886933    2.1018188    0.3905816 
H     1.8126621   -0.0263670    0.6961207 
H    -0.6060778   -0.2634079    0.1089835 
H    -1.8854960    1.7789264   -0.5068600 
H     1.3944802    4.1829524   -0.0032259 
H     2.8315157    2.2560183    0.6363998 
C    -1.7930076    5.2484384   -0.9712321 
O    -2.7421798    4.6043376   -1.1279368 
O    -0.8892217    5.9590668   -0.8355371 
