17
Energy = -529.8941579755
N     0.5615037    1.2337588   -1.0080919 
C    -0.3683658    2.0117876   -0.4865012 
C    -0.1468050    2.8950600    0.5773995 
C     1.1485954    2.9124937    1.0598828 
C     2.0781991    2.0700233    0.4669159 
N     1.7938666    1.2529843   -0.5351268 
C    -1.1812919    3.7481313    1.1547453 
C    -2.4685558    3.7560797    0.8215216 
H    -1.3413702    1.9204227   -0.9548020 
H     1.4335160    3.5621540    1.8793830 
H     3.1072433    2.0413830    0.8070392 
H    -0.8361841    4.4246454    1.9317156 
H    -2.8789179    3.1021229    0.0618788 
H    -3.1618372    4.4273245    1.3107950 
C    -0.4685300   -0.3214611   -3.1277542 
O     0.5128846   -0.8881176   -3.3506331 
O    -1.4848865    0.2104183   -2.9565004 
