15
Energy = -640.0877357488
N     0.5841827   -0.0544550    0.0607360 
C     1.5906892    0.7889791    0.4739831 
C     2.7959449    1.0171953   -0.0558854 
O     3.4137507    0.5216277   -1.1306665 
N     3.4352910    1.9503276    0.7290805 
H     4.3535413    2.3378016    0.5977610 
C     2.6149392    2.3123850    1.7666729 
O     2.8265627    3.0992149    2.6515541 
O     1.4715903    1.5994599    1.6189007 
H     0.3679300   -0.7923692    0.7173292 
H    -0.2679491    0.4194047   -0.2070645 
H     2.8133894   -0.1077225   -1.5431960 
C     5.3212317    4.3879751    2.6517181 
O     5.6072176    3.8274504    1.6754106 
O     5.0914004    4.9704684    3.6188950 
