15
Energy = -640.0853420230
O     0.3525645    0.0807034    0.2927149 
C     0.7934275   -1.1529859    0.5947249 
C     1.0977185   -2.2283952   -0.1471538 
O     0.9786164   -2.4235133   -1.4812214 
N     1.5384498   -3.2226416    0.7368512 
H     1.6789640   -4.1933600    0.5183407 
C     1.4763069   -2.7783355    2.0329654 
O     1.7380919   -3.3831578    3.0576432 
N     1.0370102   -1.4746794    1.9175088 
H     0.8514737   -0.8856205    2.7077779 
H     0.0820505    0.0884909   -0.6285386 
H     1.8440316   -2.3760113   -1.8985007 
C     2.3175843   -6.0655137    2.8574494 
O     2.4560866   -6.1713305    3.9967289 
O     2.1935287   -6.0317246    1.7029623 
