15
Energy = -640.0520457490
O     0.5040191    0.1461496   -0.8626362 
C    -0.0385482    1.2344521   -1.5709719 
C    -0.2947482    2.4023151   -0.6851828 
N     0.0967069    3.5989216   -0.9427204 
O    -0.3540497    4.3768161    0.1276096 
C    -1.0062330    3.5985294    1.0329672 
O    -1.4869456    3.9841037    2.0591283 
N    -0.9702241    2.3358255    0.4936394 
H    -1.3277105    1.5205151    0.9626577 
H     1.4047191    0.3584329   -0.6096739 
H    -0.9843095    0.8840548   -1.9904413 
H     0.5925884    1.5716369   -2.3975892 
C    -2.6728442    1.9526810    3.6793190 
O    -2.9828444    2.6844282    4.5128691 
O    -2.3799838    1.1772233    2.8652373 
