18
Energy = -679.3501465366
C     0.8579517    0.9760448   -0.1210645 
O     0.2369071    1.3063868    1.1193172 
C    -1.0709618    0.9979243    1.1793400 
C    -2.1456767    1.8000914    1.1234343 
O    -2.2963846    3.1269171    0.9643844 
N    -3.2711522    1.0041745    1.2361060 
H    -4.2158245    1.3324481    1.3128795 
C    -2.9190552   -0.3214703    1.3928947 
O    -3.6644251   -1.2679320    1.5743496 
N    -1.5496895   -0.3153335    1.3102117 
H    -1.0102119   -1.1204627    1.5764939 
H     1.8954160    1.2949925   -0.0448043 
H     0.3665840    1.4959419   -0.9475356 
H     0.8214307   -0.1009077   -0.3023555 
H    -1.4354634    3.5411984    1.0604059 
C    -2.5311850   -3.7105222    2.1339679 
O    -1.4629773   -3.2574558    2.0778065 
O    -3.5595429   -4.2260257    2.2047454 
