18
Energy = -679.3733462727
O     0.6566202   -0.0500548    0.0217524 
C     0.3153057   -1.4007252   -0.2672992 
C     1.1409054   -1.9115302   -1.3886444 
C     1.6886306   -1.2116792   -2.4025322 
O     1.6927225    0.0980236   -2.6792763 
N     2.3100117   -2.0897139   -3.2571352 
H     2.8449468   -1.8576299   -4.0757956 
C     2.1759317   -3.3884875   -2.7998878 
O     2.6273453   -4.4042291   -3.2986102 
N     1.4323313   -3.2589332   -1.6577325 
H     1.2320734   -4.0438402   -1.0675167 
H     1.5428343   -0.0475315    0.3916640 
H    -0.7516084   -1.3773674   -0.5097427 
H     0.4254135   -2.0372352    0.6200885 
H     1.2543311    0.5347388   -1.9361586 
C     4.1348283   -4.1936274   -5.5866913 
O     4.2991303   -5.3330269   -5.6448038 
O     4.0101842   -3.0388611   -5.5894415 
