18
Energy = -679.3521242623
N     1.5691084    0.8709706   -0.2713879 
C     0.7586562    1.9209825   -0.4121317 
O     0.7446142    2.9121312    0.2896017 
C    -0.2529399    1.8562912   -1.5895982 
O    -0.8476185    3.1007530   -1.7085696 
C     0.4386690    1.4967385   -2.9222450 
O     0.9566534    0.1917686   -2.9349901 
C    -1.2517359    0.8105538   -1.2962013 
N    -2.0090567   -0.0374778   -1.1270912 
H     2.2659606    0.8921404    0.4523374 
H     1.6001741    0.1699429   -0.9976921 
H    -0.5651837    3.5820049   -0.9091785 
H     1.2654121    2.1947180   -3.0606164 
H    -0.2872895    1.6625812   -3.7219890 
H     0.2592249   -0.4239227   -3.1829582 
C    -2.2454999   -2.0934287   -3.3079777 
O    -1.2721729   -1.6330477   -3.7441416 
O    -3.2110245   -2.5735627   -2.9051633 
