21
Energy = -701.6463214890
N     0.8615144   -0.0185169   -0.0673720 
C     0.0887536    0.2413592   -1.1292155 
O     0.5254892    0.6738077   -2.1877117 
C    -1.4002271   -0.0559805   -0.9312466 
O    -1.7711695    0.0561164    0.4294081 
C    -2.2338500    0.8958136   -1.7919618 
O    -1.9758540    0.7534703   -3.1648308 
C    -1.6885950   -1.5224114   -1.2922049 
O    -1.2752580   -1.8871521   -2.5752587 
H     1.8596997    0.0355276   -0.1656189 
H     0.4506884   -0.3866790    0.7714742 
H    -1.8410080    0.9864076    0.6570522 
H    -2.0540793    1.9304344   -1.4596252 
H    -3.2887740    0.6689608   -1.6221827 
H    -1.0171626    0.8921338   -3.2521556 
H    -2.7661467   -1.6729032   -1.1425292 
H    -1.1631183   -2.1646388   -0.5823486 
H    -1.6343517   -1.2319557   -3.1876438 
C     1.4340052   -1.8168152   -3.4840889 
O     1.0334403   -1.4961629   -4.5197346 
O     1.8754689   -2.1543851   -2.4680752 
