18
Energy = -679.3158253261
C     0.7616571    0.4650744    0.1137863 
O     0.8322112    1.8542462    0.3881592 
C     1.1470724    2.1739952    1.6481680 
N     1.3879459    1.2970923    2.6024221 
N     1.6809348    2.0538474    3.6871736 
H     1.8732412    1.6069606    4.5643728 
C     1.6350865    3.3684994    3.4182940 
O     1.8930446    4.2776546    4.3685787 
C     1.2879308    3.5009216    2.0960841 
O     1.0976659    4.6860072    1.4488622 
H     0.5032339    0.3783851   -0.9387292 
H    -0.0008270   -0.0137356    0.7308208 
H     1.7203139   -0.0188685    0.3099759 
H     1.8320714    5.1499276    3.9701771 
H     1.2918522    4.5614946    0.5180047 
C     1.5835515   -1.3011936    3.6193551 
O     1.8377478   -0.7977555    4.6322943 
O     1.3370583   -1.8660327    2.6424087 
