16
Energy = -678.0942404671
N     1.2922549    0.8445577   -0.3892731 
C     1.7808915    1.6511791    0.5722442 
C     1.0714966    2.6075972    1.2380750 
O    -0.2219302    2.8691084    0.9491807 
C     1.6943161    3.3552563    2.2629519 
O     1.0939160    4.2310380    2.8896965 
C     3.0870150    2.9796810    2.4790840 
N     3.7400400    2.0814320    1.8395683 
O     3.0669803    1.4021269    0.8580824 
H     0.4098575    1.0896811   -0.8072483 
H     1.9513565    0.3397183   -0.9544172 
H    -0.4601172    3.5792318    1.5695842 
H     3.6606263    3.4896439    3.2452466 
C    -2.1644739    2.4569296   -1.0646058 
O    -1.4729286    1.6921935   -1.5964250 
O    -2.8734594    3.2127312   -0.5591572 
