16
Energy = -678.1001032832
N    -2.9304765   -1.9910659    0.3876450 
C    -2.0095008   -1.1750783   -0.1690690 
C    -0.6524422   -1.3331718   -0.2725958 
O    -0.0993884   -0.2358876   -0.8564571 
N    -1.0952804    0.6463663   -1.1490721 
C    -2.2142320    0.1082350   -0.7516715 
O    -3.4063819    0.6842892   -0.8818197 
C     0.1516951   -2.4555369    0.1126058 
O    -0.3390002   -3.4474252    0.6199112 
H    -2.6247886   -2.9248011    0.6073363 
H    -3.8945782   -1.8524072    0.1464924 
H    -3.2923608    1.5411113   -1.3165332 
H     1.2363198   -2.3759694   -0.0811646 
C    -1.3087028    3.2401393   -2.3875751 
O    -2.4507952    3.1189077   -2.2059214 
O    -0.1878428    3.4063299   -2.5890385 
