15
Energy = -694.1917707329
O     0.9587634   -0.0298446    0.4442738 
C     2.0548898    0.0627527   -0.3194151 
N     2.3636755   -0.9088486   -1.0938703 
N     3.4649819   -0.7533229   -1.8261522 
H     3.6953204   -1.5252288   -2.4301316 
C     4.3164569    0.3404777   -1.8461581 
O     5.2895566    0.3591294   -2.5593753 
N     3.9506012    1.3732437   -0.9950817 
C     2.8920532    1.2389346   -0.2828706 
O     2.4875745    2.1891081    0.5508129 
H     0.8787203    0.7796859    0.9583797 
H     3.1142728    2.9322689    0.5018938 
C     5.3652921    3.9382466   -0.6102231 
O     6.2257926    3.7629784   -1.3509100 
O     4.5127930    4.1620434    0.1517516 
