18
Energy = -679.3323036648
O     2.0324039    1.6172111    0.1925145 
C     1.0330785    0.6646353    0.5083631 
C     1.2295267    0.0514174    1.8465328 
C     0.3593875   -0.1469280    2.8948079 
O    -0.9544270    0.1812858    2.9317681 
C     1.1322089   -0.7673833    3.8932207 
O     0.6549800   -1.1398059    5.0922284 
N     2.3807027   -0.9358631    3.5096403 
N     2.4175264   -0.4551282    2.2586676 
H     3.2974446   -0.3685366    1.7858176 
H     1.9868336    2.3220299    0.8417030 
H     1.0978835   -0.0913750   -0.2778988 
H     0.0264168    1.0926059    0.4665659 
H    -1.3031242   -0.0740229    3.7886016 
H     1.3747086   -1.5409675    5.5936758 
C     4.1588279   -2.1389351    5.2807008 
O     3.2827701   -2.2417001    6.0360784 
O     5.0707837   -2.0671586    4.5788645 
