18
Energy = -679.3439719430
O    -0.2725737   -0.8428078   -0.8529454 
C    -0.8038542   -0.0036029    0.1784223 
C    -1.4485613    1.2010558   -0.4050639 
C    -1.0327139    1.8332255   -1.5608234 
O    -0.0435193    1.5277175   -2.4012978 
N    -1.8318677    2.8854343   -1.7691784 
H    -1.8133450    3.5277260   -2.5385254 
N    -2.7804725    3.0012930   -0.8007457 
C    -2.5435002    1.9877793    0.0057762 
O    -3.2804744    1.7596369    1.1001848 
H    -1.0144023   -1.2360873   -1.3181431 
H     0.0599398    0.2521357    0.7970999 
H    -1.5044439   -0.5526875    0.8137961 
H     0.2706823    0.6508053   -2.1286860 
H    -3.9642293    2.4392073    1.1424851 
C    -4.8599352    4.7446900   -0.3045787 
O    -5.1159259    4.1296718    0.6462685 
O    -4.6646003    5.4014580   -1.2325682 
