18
Energy = -679.3295022182
O     0.0366519   -1.1767541    0.4565702 
C    -0.2248668   -2.3510738   -0.3120750 
C     0.0897272   -2.1215389   -1.7461167 
N    -0.6463019   -2.5868539   -2.7438738 
N    -0.0109912   -2.1709371   -3.8494734 
H    -0.3761785   -2.3920561   -4.7572133 
C     1.0876650   -1.4322500   -3.5871293 
O     1.8175189   -0.9298440   -4.5902858 
C     1.1888423   -1.3797621   -2.2162603 
O     2.1535021   -0.7437857   -1.4921085 
H    -0.5975732   -0.5068209    0.1922543 
H    -1.2580147   -2.6912185   -0.2013315 
H     0.4261185   -3.1173018    0.1150814 
H     2.5892724   -0.4802734   -4.2270585 
H     1.8029149   -0.6496318   -0.5967895 
C     4.4082623    0.6253625   -2.2941409 
O     4.1672028    0.3858405   -3.4041433 
O     4.6868118    0.8882546   -1.2075083 
