18
Energy = -601.2506663543
C     1.5058014    1.3786953    1.1770669 
N     0.8097047    1.8604200    0.0099185 
C    -0.5612315    1.8460501   -0.1114097 
C    -0.8152969    2.3067143   -1.3847463 
N    -1.7278098    2.6374267   -2.3313090 
N    -1.0976190    3.0824118   -3.4455545 
N     0.1685830    3.0653202   -3.2780336 
C     0.4152410    2.5918543   -2.0161148 
C     1.4286524    2.3006396   -1.1179614 
H     2.5105981    1.7960531    1.1939945 
H     1.5738672    0.2889495    1.1726054 
H     0.9816837    1.6979101    2.0773819 
H    -1.1883174    1.5217973    0.6997314 
H    -2.7308154    2.6014090   -2.3396858 
H     2.5006999    2.3677753   -1.1792658 
C    -3.3309332    3.6679606   -5.1613214 
O    -3.9596429    3.2959870   -4.2589315 
O    -2.7542774    4.0465718   -6.0852703 
