18
Energy = -601.2905283842
N     0.7858779    0.7874188    0.2569346 
C     1.0671104    1.4689398   -0.9083960 
N     1.9098683    0.9758592   -1.7949515 
N     1.8776990    1.8101557   -2.8875184 
H     2.6462072    1.7527037   -3.5288117 
C     1.0853123    2.8656510   -2.6085289 
C     0.4965909    2.6888108   -1.3689251 
C    -0.3986320    3.7883141   -1.1829567 
C    -0.2988166    4.5614876   -2.3042716 
N     0.6089308    3.9918427   -3.1928075 
H     0.8693550    4.3759413   -4.0800888 
H     1.4699703    0.0772055    0.4694202 
H     0.5991356    1.3833987    1.0458888 
H    -1.0418964    3.9951777   -0.3435957 
H    -0.7946019    5.4836785   -2.5579116 
C     4.1130540   -0.5112472   -1.4164135 
O     3.7712576   -0.8724783   -0.3708562 
O     4.5351914   -0.1975509   -2.4478921 
