18
Energy = -601.2809584384
N     0.6380510    0.2687856    0.0513233 
C    -0.3439632    1.1021493   -0.4824643 
C    -0.6144415    2.4038307   -0.1553305 
N    -1.7188803    2.8670566   -0.8942505 
H    -2.2340553    3.6983178   -0.6795547 
C    -2.1420831    1.8226753   -1.6406640 
C    -1.3298657    0.7137173   -1.4496294 
C    -1.8863409   -0.2585722   -2.3121920 
N    -2.9345397    0.2229408   -2.9561011 
N    -3.0870175    1.5058399   -2.5434770 
H    -3.8492717    2.0400585   -2.9170260 
H     1.3589183    0.7684252    0.5474949 
H     1.0561266   -0.3353804   -0.6391719 
H    -0.1084266    3.0627944    0.5305542 
H    -1.5857494   -1.2786793   -2.4936431 
C    -5.0481983   -0.0890968   -4.7362470 
O    -5.3164571    1.0125299   -4.4868257 
O    -4.8424966   -1.1851837   -5.0323385 
