18
Energy = -601.2611406427
N     1.0079570    0.5872775   -0.4980127 
C    -0.3225730    0.2208368   -0.4741841 
C    -1.4680267    0.9804128   -0.4378285 
C    -2.1144558    2.3229468   -0.4367710 
C    -3.5766341    1.9480734   -0.3376127 
C    -3.7187024    0.6219427   -0.2879653 
N    -2.4474387    0.0437577   -0.3486754 
N    -1.9937934   -1.1887073   -0.3210736 
N    -0.6928410   -1.0875448   -0.4042189 
H     1.2109353    1.3837715   -1.0788971 
H     1.6089686   -0.1940611   -0.7150783 
H    -1.9100550    2.9013253   -1.3442678 
H    -1.7993388    2.9443080    0.4084953 
H    -4.3836126    2.6636627   -0.3121123 
H    -4.5972153    0.0021888   -0.2143111 
C     1.1303611   -3.2189522   -0.7760631 
O     1.9691110   -2.4484336   -0.9999257 
O     0.3455199   -4.0377183   -0.5653052 
