18
Energy = -601.2827640181
N     0.0004704   -0.0500839   -0.3815163 
C     0.5905009    1.1985960   -0.6579502 
C     0.7556575    1.8193569   -1.8762815 
N     1.3118370    3.0710803   -1.7098386 
H     1.4718153    3.7302800   -2.4450948 
C     1.5171817    3.2681538   -0.3725086 
C     1.0759519    2.1333062    0.2964358 
N     1.2982503    2.3704612    1.6132634 
H     1.0364330    1.8092368    2.4015770 
N     1.8337411    3.5837855    1.8164785 
C     1.9821110    4.1454376    0.6248895 
H    -0.4027932   -0.4648781   -1.2083416 
H     0.6620639   -0.7044159    0.0152540 
H     0.5043415    1.4522111   -2.8587819 
H     2.4071690    5.1333354    0.5488962 
C    -1.8324619    0.4815087    1.7959320 
O    -2.7475506    0.5701189    1.0974582 
O    -0.9501530    0.3999316    2.5439809 
