18
Energy = -601.2923585854
N     1.2019283    0.6152752    0.6592667 
C     1.7496057    1.5933514   -0.1620328 
N     2.9695693    1.4782438   -0.6609482 
N     3.2367509    2.6205138   -1.3405028 
H     4.1333495    2.7242979   -1.7725995 
C     2.1878125    3.4728774   -1.2970238 
C     1.2115803    2.8404396   -0.5387800 
N     0.1303695    3.6826493   -0.4627712 
H    -0.6981903    3.5456117    0.0820143 
C     0.4376387    4.8266317   -1.1515654 
C     1.6998291    4.7450600   -1.6932885 
H     1.8016050   -0.1967850    0.7014257 
H     0.2707043    0.3425232    0.3829458 
H    -0.2738741    5.6343652   -1.2134082 
H     2.1785390    5.5039689   -2.2886906 
C     4.7070502   -0.6028356   -0.6844500 
O     3.9947630   -1.2805740   -0.0721415 
O     5.4749128    0.0069185   -1.2985348 
