18
Energy = -601.2908178545
N    -0.4241631    0.8430215    1.4096019 
C    -0.4207369    0.8447906    0.0206223 
C    -0.4427726   -0.2035356   -0.8732953 
C    -0.5464813    0.4142119   -2.1512678 
C    -0.5697388    1.7925960   -1.9895986 
N    -0.4653059    2.0520727   -0.6364279 
H    -0.7292447    2.9047972   -0.1797676 
C    -0.6334098    2.3385432   -3.2779322 
N    -0.6593251    1.3577931   -4.1737810 
N    -0.6002400    0.2031855   -3.4834266 
H    -0.5923635   -0.6566326   -3.9997594 
H     0.3403013    1.3647425    1.8149428 
H    -0.4399197   -0.0901847    1.7882537 
H    -0.3616334   -1.2476446   -0.6215223 
H    -0.6735400    3.3639094   -3.6086918 
C    -0.7433727    0.5616668   -6.8184364 
O    -0.7967487    1.6136763   -7.2908698 
O    -0.6915632   -0.5270265   -6.4199518 
