17
Energy = -475.8499488909
C    -1.6910083    2.0067330    3.1924731 
C    -1.6386940    2.1979634    1.8224351 
C    -1.8199549    1.0930255    1.0054597 
N    -2.0399058   -0.1319904    1.4660291 
C    -2.0912305   -0.3210932    2.7862453 
C    -1.9200240    0.7318278    3.6805851 
C    -2.3411477   -1.7172301    3.2578837 
H    -1.5554106    2.8386224    3.8733787 
H    -1.4624333    3.1751910    1.3923967 
H    -1.7876499    1.1926520   -0.0751524 
H    -1.9670897    0.5462400    4.7464206 
H    -3.2880650   -2.0866110    2.8608225 
H    -2.3671902   -1.7744824    4.3454435 
H    -1.5634297   -2.3866361    2.8865610 
C    -2.3462986   -1.9780249   -0.6498177 
O    -2.5218163   -2.8910595    0.0389480 
O    -2.1784434   -1.1113521   -1.3988659 
