19
Energy = -585.2100961128
C     1.4703280    0.1814997   -0.6703524 
C     0.6841101   -0.0365238   -1.9081679 
H     1.0727057   -0.6492795   -2.7123870 
N     0.3448311   -0.7347083   -0.6426969 
C    -0.9048140   -0.1675358   -0.0928412 
C    -1.2818966    0.9074110   -1.0604215 
N    -2.2473953    1.7973770   -1.1690264 
N    -1.9729692    2.4137602   -2.3276950 
H    -2.5981168    3.1346619   -2.6433108 
C    -0.8634910    1.9424632   -2.9500080 
C    -0.3835381    0.9498489   -2.1333543 
H     1.3592819    1.1513910   -0.1931108 
H     2.4403803   -0.2876008   -0.5483818 
H    -0.7372004    0.1966518    0.9230698 
H    -1.6586856   -0.9566919   -0.0422289 
H    -0.5304821    2.3526770   -3.8889938 
C    -4.5670408    3.1132722   -0.2887039 
O    -4.6930768    2.5542252    0.7128877 
O    -4.4949745    3.7115381   -1.2805172 
