19
Energy = -585.2405460386
C     0.5765739    0.3085270   -0.3557883 
N     1.5095697   -0.7791703   -0.3398847 
N     2.3034215   -1.0373251   -1.4096902 
C     3.0541980   -2.0808920   -1.0980019 
C     2.7666605   -2.5399084    0.2075512 
C     1.7756757   -1.6668263    0.6332335 
N     1.3794549   -1.9759499    1.8937126 
H     0.6855784   -1.5148330    2.4489248 
C     2.1338152   -3.0753552    2.2914820 
C     2.9878791   -3.4467362    1.2924667 
H    -0.4447285   -0.0490145   -0.2017763 
H     0.6424941    0.7820019   -1.3316967 
H     0.8178761    1.0462271    0.4140072 
H     3.7608695   -2.4484170   -1.8255126 
H     1.9887100   -3.5002029    3.2710914 
H     3.6815168   -4.2695692    1.3449316 
C     2.5734246    0.2252451   -3.8876297 
O     3.3816619   -0.5470553   -4.1825441 
O     1.7728526    1.0302173   -3.6577976 
