19
Energy = -585.2651335644
N     0.6938791    0.5509433   -0.5364815 
C     0.9566954    1.8110117   -0.0276424 
C     0.1191382    2.9085439    0.0449716 
N     0.9132925    3.9040806    0.5644649 
C     0.8447274    5.2861497    0.9579140 
C     2.2502229    5.5324527    1.4433261 
C     2.9854633    4.4168057    1.3270582 
C     2.1406184    3.3835437    0.7714288 
N     2.2093607    2.1144895    0.4267962 
H     1.3780063   -0.1243642   -0.2312811 
H    -0.2454450    0.2250281   -0.3821580 
H    -0.9098468    3.0508466   -0.2334225 
H     0.1045988    5.4438570    1.7482163 
H     0.5825129    5.9333863    0.1155374 
H     2.5748807    6.4896825    1.8214984 
H     4.0227104    4.2834431    1.5921270 
C     4.2527789    0.3946335    1.0205217 
O     3.6328393   -0.5263874    0.6888782 
O     4.9379015    1.2562221    1.3748475 
