19
Energy = -585.2430461626
C     1.6110227    1.0355975   -0.0874486 
N     0.7272643    1.4216170   -1.1502799 
C     1.0757929    2.0916068   -2.2951876 
C    -0.0177911    2.3044026   -3.1041726 
C    -1.1015053    1.7231304   -2.3994939 
C    -0.6213997    1.1894514   -1.2073537 
C    -1.7309940    0.6290370   -0.5518814 
N    -2.8147138    0.8090524   -1.2946315 
N    -2.4301261    1.4661083   -2.4020078 
H    -3.1291451    1.6907416   -3.0854489 
H     1.3152105    1.5006562    0.8559021 
H     2.6219370    1.3580698   -0.3298557 
H     1.6148748   -0.0490371    0.0436910 
H     2.1036878    2.3768069   -2.4572859 
H    -0.0104813    2.8066498   -4.0565142 
H    -1.8101614    0.1165080    0.3932445 
C    -5.5537195    0.4657998   -1.6446619 
O    -5.7620879   -0.0990571   -0.6596941 
O    -5.4184799    1.0277421   -2.6508008 
