18
Energy = -601.2628137625
N     0.8994231    0.3716350   -0.3355179 
C     0.1460106    0.6318430    0.7894929 
C     0.4087932    0.4202208    2.1292533 
C     1.3082850   -0.0118427    3.1736822 
C     0.6881325    0.1254283    4.3564880 
C    -0.7033314    0.6721331    4.1702166 
N    -0.7445057    0.8096767    2.7321395 
N    -1.6562404    1.2169943    1.8861643 
N    -1.1190470    1.1168980    0.6963463 
H     1.8829107    0.5594651   -0.2356583 
H     0.5147716    0.8132161   -1.1575286 
H     2.3087272   -0.3867368    3.0201667 
H     1.0934600   -0.1149466    5.3276612 
H    -0.8531845    1.6371798    4.6615563 
H    -1.4802052   -0.0129727    4.5194843 
C    -2.2097801    2.1008565   -1.7174516 
O    -3.2457091    2.3170792   -1.2581471 
O    -1.1929406    1.9102112   -2.2437588 
