18
Energy = -601.2533408070
C     0.6804224    0.8997736    0.0288605 
N     0.4268653    0.8378168    1.4371476 
N    -0.7401977    1.3005386    1.9443074 
N    -0.7688761    1.1557152    3.2145845 
C     0.4127849    0.5759188    3.5983919 
C     1.1227483    0.1198125    4.6944876 
N     2.2960746   -0.3461219    4.1869943 
H     3.0231082   -0.7440981    4.7535035 
C     2.3917160   -0.2194581    2.8204554 
C     1.2007895    0.3637931    2.4469952 
H    -0.1911422    1.3489964   -0.4414358 
H     0.8367578   -0.1003054   -0.3809626 
H     1.5597477    1.5127566   -0.1799639 
H     0.8997384    0.0905809    5.7458949 
H     3.2625904   -0.5451339    2.2812909 
C    -2.5307719    1.6494123    5.3908505 
O    -1.6925773    1.2444678    6.0814891 
O    -3.4033619    2.0618759    4.7562185 
