19
Energy = -618.5555763899
N     0.3409222    0.1245447   -0.0252926 
C     0.4808469    1.2353463   -0.6388908 
N     0.6025140    1.4219015   -2.0075531 
N     0.5759146    2.4172870    0.0530218 
C     0.5038408    2.5553353    1.4277326 
C     0.5925965    3.6997888    2.1977625 
C     0.4362513    3.2286222    3.5116237 
N     0.2647918    1.9188927    3.5494557 
N     0.3118584    1.5284543    2.2693659 
H     0.2275711    0.5648540    1.9723283 
H     0.2159472   -0.6488360   -0.6656985 
H     0.4126755    0.5981703   -2.5521295 
H     0.1439969    2.2384812   -2.3796393 
H     0.9433022    3.2086906   -0.4425498 
H     0.7386611    4.7114841    1.8584570 
H     0.4396667    3.7957421    4.4294599 
C    -0.1898224   -0.3165684    5.1205453 
O    -0.2006302   -0.9408364    4.1441007 
O    -0.1921642    0.2402715    6.1333862 
