20
Energy = -515.1379643664
C    -2.0715038    0.4108508    3.4367909 
C    -1.8950114   -0.0469698    2.1434060 
C    -0.8988422    0.5267958    1.3598812 
N    -0.1130660    1.4987045    1.8205949 
C    -0.2776553    1.9426056    3.0656518 
C    -1.2532473    1.4211792    3.9093077 
C     0.6458122    3.0301221    3.5144297 
C    -0.6588791    0.0853169   -0.0487763 
H    -2.8397545   -0.0159391    4.0707854 
H    -2.5165681   -0.8362392    1.7400979 
H    -1.3625092    1.8043472    4.9158430 
H     1.6790287    2.6758273    3.4976796 
H     0.4122271    3.3666807    4.5238303 
H     0.5851966    3.8806103    2.8334811 
H    -0.8397264    0.9136694   -0.7376010 
H    -1.3077725   -0.7440707   -0.3275879 
H     0.3812156   -0.2191464   -0.1759621 
C     1.9708092    2.6286639    0.1270343 
O     1.4283065    3.6498185    0.0840174 
O     2.5584221    1.6317935    0.1336313 
