17
Energy = -621.1549392829
N     0.4115830    0.2156988    0.7580767 
C     0.5775569    1.4304872    0.1381737 
C     0.0798642    2.6778104    0.4094157 
C     0.5488399    3.4651170   -0.6869123 
C     1.2786639    2.6458556   -1.4950425 
O     1.3111834    1.3774720   -1.0080758 
N     1.8199235    3.2538024   -2.5622734 
C     1.4096971    4.4998884   -2.4244286 
N     0.6382883    4.6834780   -1.3028090 
H     0.2248276    5.5510250   -1.0167793 
H     0.1370914    0.2867058    1.7234079 
H     1.1930298   -0.4090361    0.6323810 
H    -0.5257965    2.9460603    1.2579343 
H     1.6362127    5.3030400   -3.1059624 
C     3.4458156    2.9462696   -4.8560022 
O     3.6701053    1.8256416   -4.6842203 
O     3.2605120    4.0669910   -5.0843553 
