15
Energy = -660.8800178098
O     0.8843043   -0.0095898    0.2699968 
C    -0.0616596   -0.7062813    0.3851276 
O    -1.3152833   -0.4022524   -0.1385582 
C    -2.1034816   -1.4384926    0.2497304 
C    -1.4077372   -2.3509677    0.9458881 
O    -0.1065100   -1.8975324    1.0423422 
C    -2.2356445   -3.4651125    1.1867807 
C    -3.4395210   -3.1291019    0.5979733 
N    -3.3483584   -1.8857363   -0.0018595 
H    -4.0864318   -1.3839028   -0.4603478 
H    -2.0239326   -4.3759772    1.7192575 
H    -4.3733160   -3.6636003    0.5966563 
C    -3.0030671    1.5560669   -1.7123354 
O    -2.2123265    2.3587558   -1.9542481 
O    -3.8114275    0.7572576   -1.4776043 
