19
Energy = -585.2535306473
C     0.9523488   -0.1002166   -0.0930429 
N     1.7299195    1.0605740   -0.4206306 
C     1.9198759    2.1847653    0.3589573 
N     2.6797627    3.0910759   -0.1945812 
C     3.0252546    2.5570449   -1.4139144 
C     2.4439859    1.3152007   -1.5516013 
N     2.7725857    0.7687006   -2.7483942 
H     2.4970598   -0.1183616   -3.1217032 
C     3.5882942    1.6924866   -3.3925214 
C     3.7656455    2.8010682   -2.6052401 
H     0.5172475    0.0362672    0.8953132 
H     1.5744654   -0.9982065   -0.0746005 
H     0.1405829   -0.2452659   -0.8097980 
H     1.4604610    2.2625765    1.3331866 
H     3.9760227    1.4716756   -4.3728477 
H     4.3535245    3.6654680   -2.8659991 
C     3.0500663    5.3471350    1.3640149 
O     2.3881846    4.8661290    2.1848008 
O     3.7190836    5.8950442    0.5966849 
