18
Energy = -601.2867400460
C     0.9282809    1.0246296    0.0906516 
N     1.2970045    2.4319623   -0.0244198 
C     1.0892136    3.0792511   -1.0869331 
N     0.5250585    2.6058518   -2.2707198 
C    -0.0450951    1.3556538   -2.1646889 
C     0.1087348    0.5508195   -1.0654015 
C    -0.6259799   -0.6023193   -1.3955177 
N    -1.1770592   -0.5097378   -2.5956723 
N    -0.8061294    0.7006850   -3.0556792 
H    -1.1134545    0.9818846   -3.9699736 
H     0.4007566    0.8971376    1.0410428 
H     1.8565649    0.4490293    0.1914871 
H     1.3827878    4.1256636   -1.1379031 
H     0.1429275    3.2834457   -2.9072311 
H    -0.7785464   -1.4971066   -0.8114711 
C    -2.7588679   -1.4552860   -4.6961331 
O    -2.5017444   -0.4520226   -5.2212042 
O    -3.0542404   -2.4693258   -4.2325592 
