19
Energy = -585.2638031748
C     0.3603353    0.7742182   -0.5429683 
C    -0.5147489    1.4984308    0.4160465 
C    -1.3924292    0.9474522    1.3155102 
N    -2.0373143    1.9409589    2.0525561 
H    -2.7356093    1.7810459    2.7512349 
C    -1.5574370    3.1223404    1.5982225 
C    -0.6272521    2.9096939    0.6058592 
N    -0.1393166    4.1163560    0.1594257 
C    -0.7647695    5.0144484    0.8691334 
N    -1.6531901    4.4700811    1.7772310 
H    -2.2334021    4.9835858    2.4131237 
H     0.2302594   -0.3051910   -0.4575219 
H     1.4133918    1.0067256   -0.3692298 
H     0.1415854    1.0643561   -1.5731340 
H    -1.6198346   -0.0896061    1.5007356 
H    -0.6323442    6.0820575    0.7867580 
C     1.7462234    4.8866428   -1.6976690 
O     1.5394857    6.0012383   -1.4602398 
O     2.0117904    3.7998831   -1.9923002 
