19
Energy = -585.2679866575
C     0.7731773    1.3459150   -0.0204383 
C     2.0710249    1.9585433   -0.3889525 
N     2.9486056    2.4515198    0.4454666 
C     3.9870132    2.9059646   -0.3383577 
C     3.7022192    2.6694167   -1.6629745 
N     4.7138639    3.1103371   -2.4491777 
H     4.7844441    3.0741276   -3.4469828 
C     5.6741391    3.6455897   -1.5967037 
C     5.2617546    3.5371807   -0.2932574 
N     2.4799767    2.0638331   -1.7097616 
H     1.9619803    1.7507176   -2.5087899 
H     0.7110630    0.3031036   -0.3430357 
H    -0.0693428    1.8843563   -0.4627059 
H     0.6736515    1.3787846    1.0621401 
H     6.5794358    4.0620066   -2.0051507 
H     5.8128576    3.8713511    0.5700002 
C     2.9610259    2.6851340    3.2027144 
O     4.0020148    3.1886383    3.1757732 
O     1.9204985    2.1892423    3.3171472 
