19
Energy = -585.2637731784
C     0.7936754    1.0554841    0.0170524 
N     1.0564024   -0.2116122    0.6841566 
C    -0.0668959   -0.9487818    0.9546044 
C    -1.1893624   -0.8513391    0.1618830 
N    -2.0343925   -1.8264468    0.6483673 
H    -2.9660954   -2.0233205    0.3327228 
C    -1.4076710   -2.4216017    1.6854466 
N    -0.2053565   -1.9181436    1.8935551 
C    -1.1977361   -0.0141948   -0.9986101 
C    -0.1955829    0.8708451   -1.1076091 
H     1.7371335    1.4430982   -0.3698838 
H     0.3986488    1.8130630    0.7216126 
H     1.7407913   -0.1926977    1.4226467 
H    -1.8647496   -3.2011416    2.2734835 
H    -1.9420454   -0.1257571   -1.7783658 
H    -0.1092627    1.5105265   -1.9760346 
C     1.6537929   -2.1726114    3.9451246 
O     1.0991013   -3.0582158    4.4378383 
O     2.2648719   -1.2878058    3.5117933 
