23
Energy = -554.4250875819
C    -3.5702781    1.7180834    0.5472997 
C    -2.8708852    1.0270070    1.5274579 
C    -1.5322204    1.3200069    1.7568302 
N    -0.8825520    2.2524510    1.0619098 
C    -1.5379744    2.9269102    0.1186974 
C    -2.8776162    2.6887702   -0.1633463 
C    -0.7556028    3.9602536   -0.6280609 
C    -0.7467359    0.6052411    2.8102843 
C    -5.0041036    1.4115937    0.2521432 
H    -3.3646251    0.2632709    2.1171426 
H    -3.3767614    3.2632569   -0.9350868 
H    -1.3735780    4.4895765   -1.3523671 
H     0.0756997    3.4902265   -1.1584074 
H    -0.3268803    4.6830375    0.0681553 
H     0.1506255    0.1626369    2.3750342 
H    -1.3327482   -0.1783082    3.2892260 
H    -0.4192052    1.3107050    3.5774789 
H    -5.5248893    2.2855681   -0.1400295 
H    -5.5280114    1.0648896    1.1434177 
H    -5.0774208    0.6208112   -0.4995036 
C     1.8868488    2.8797800    1.6703838 
O     1.5887428    3.9234345    2.0717406 
O     2.2474190    1.8506385    1.2832589 
