19
Energy = -585.2646853439
C     1.0780982    0.5047416   -0.0426763 
C     1.2426861    1.1132522    1.2997013 
C     1.4937565    2.4134388    1.6598822 
C     1.5535110    2.4345253    3.0844132 
C     1.3351217    1.1446460    3.5105845 
N     1.3916291    1.1534792    4.8720275 
H     1.2780150    0.3927432    5.5146193 
C     1.6449814    2.4689910    5.2086062 
N     1.7467774    3.2546136    4.1710721 
N     1.1443551    0.3242272    2.4461979 
H     0.9634936   -0.6609372    2.4477584 
H     1.8258512   -0.2702220   -0.2376389 
H     1.1911626    1.2721131   -0.8069555 
H     0.0900236    0.0520077   -0.1709740 
H     1.6162012    3.2335617    0.9712872 
H     1.7419808    2.7761862    6.2381449 
C     2.2555875    5.9164163    4.6996365 
O     2.2587127    5.6840599    5.8347679 
O     2.2684595    6.2309941    3.5869240 
