19
Energy = -585.2641627631
C     1.0128008    0.6095514   -0.4679709 
N     2.2058489   -0.0038148    0.0500995 
C     2.4010087   -1.3414344    0.3016355 
C     3.6998168   -1.5891429    0.7008585 
C     4.3260394   -0.3218833    0.6789161 
C     3.3969832    0.6166835    0.2757659 
N     3.8961681    1.8781868    0.2274234 
C     5.1458580    1.7194722    0.6060877 
N     5.4640484    0.4202475    0.8924886 
H     6.3625141    0.0958918    1.1964870 
H     0.1400342    0.0552422   -0.1249860 
H     1.0140510    0.6303669   -1.5607842 
H     0.9472123    1.6339923   -0.1050745 
H     1.5852328   -2.0358622    0.1809527 
H     4.0996568   -2.5522312    0.9703713 
H     5.8674595    2.5168662    0.6896144 
C     3.0127588    4.4640358   -0.2656265 
O     1.9187748    4.1406568   -0.4619320 
O     4.0831994    4.8635443   -0.0822278 
