19
Energy = -585.2526880174
C     0.3164590    0.0483809    0.3420884 
N    -0.0073508    1.2274445   -0.4078469 
C    -0.3029187    2.4832735    0.1121391 
C    -0.5834325    3.3743139   -0.8927261 
C    -0.4592416    2.6384396   -2.1043069 
C    -0.1125031    1.3518655   -1.7516695 
N     0.0133086    0.6356799   -2.9056761 
H     0.2506128   -0.3303947   -3.0281030 
C    -0.2681917    1.5374511   -3.9133289 
N    -0.5516365    2.7330111   -3.4737266 
H     0.3541568    0.3035640    1.3992225 
H     1.2931240   -0.3481998    0.0525089 
H    -0.4367836   -0.7322578    0.2046637 
H    -0.2840165    2.6268024    1.1802928 
H    -0.8398543    4.4119590   -0.7582331 
H    -0.2455699    1.2436422   -4.9512424 
C    -1.0736387    4.5745205   -5.4795888 
O    -1.2654716    5.4590249   -4.7602318 
O    -0.8962316    3.7406995   -6.2645654 
