19
Energy = -585.2796483833
C     1.3010339    1.0673685   -0.3123497 
C     0.7600175    0.0560627   -1.2501722 
N    -0.2767228    0.2414152   -2.0436757 
C    -0.3940876   -0.9412788   -2.7017599 
C     0.5575776   -1.8656726   -2.3296446 
N     1.3016763   -1.1975555   -1.3817395 
H     2.0933095   -1.5402016   -0.8708844 
C     0.3475752   -3.0527497   -3.0702967 
C    -0.7440356   -2.7811628   -3.8703078 
N    -1.1954716   -1.5012605   -3.6484111 
H    -1.9722312   -1.0564319   -4.1000890 
H     0.7045955    1.9730609   -0.3983939 
H     2.3412334    1.3147643   -0.5399300 
H     1.2584819    0.7219286    0.7239623 
H     0.8902712   -3.9829687   -3.0489173 
H    -1.2334422   -3.4180797   -4.5879512 
C    -2.1471116    2.1188079   -2.7933111 
O    -2.5981463    1.3438073   -3.5284714 
O    -1.7583471    2.9468515   -2.0877006 
