18
Energy = -601.3127014051
N     0.7983193    0.2996608   -0.1648659 
C     1.4080645   -0.4595368    0.7695996 
N     2.6669739   -0.3770931    1.0705241 
C     2.9883277   -1.3795524    2.0835445 
C     1.6867033   -2.0577073    2.3303582 
C     0.7355283   -1.5014025    1.5352623 
N    -0.4911445   -2.0740062    1.7115969 
C    -0.2721597   -2.9876512    2.6235838 
N     1.0394299   -3.0220792    3.0362035 
H     1.4198907   -3.6453496    3.7251059 
H     1.2984415    1.0968247   -0.5180751 
H    -0.2037107    0.3253554   -0.1743824 
H     3.3974945   -0.8924870    2.9745834 
H     3.7614763   -2.0578139    1.7077698 
H    -1.0113211   -3.6591889    3.0330223 
C     4.2409368    1.6774104    0.2735021 
O     3.3979699    2.1227316   -0.3877956 
O     5.1414316    1.3179901    0.9021566 
