18
Energy = -601.3160392541
N     1.1112902    0.1592604   -0.7604404 
C     1.8158998    0.7969158    0.0799091 
N     2.8062930    0.1701280    0.7787739 
C     3.6475704    0.7177696    1.7117865 
N     4.5234212   -0.1382144    2.2356537 
C     5.3604695    0.3396675    3.1426225 
N     5.4320673    1.5823437    3.5971322 
C     4.5494839    2.4255619    3.0632649 
C     3.6242880    2.0574505    2.1108748 
H     0.4235719    0.7647441   -1.1915923 
H     1.6992635    1.8563215    0.3099181 
H     2.9440088   -0.8151529    0.5925991 
H     6.0671531   -0.3724123    3.5583847 
H     4.5850473    3.4514855    3.4171546 
H     2.9308451    2.7825991    1.7108255 
C     1.4869407   -2.5995302   -1.3495095 
O     2.3408954   -2.6464033   -0.5658402 
O     0.6477220   -2.6167375   -2.1416732 
