18
Energy = -601.2951917322
C     0.6264117    0.6148968    0.0602646 
C     1.2430800   -0.7317761    0.0157547 
C     2.2400256   -1.3388209    0.7598169 
N     3.1483984   -1.1612406    1.7848031 
C     3.7539089   -2.3113740    1.8548962 
N     3.3168983   -3.2559825    0.9481015 
H     3.6528154   -4.1947816    0.8362580 
C     2.3335341   -2.6338189    0.2314664 
N     1.4995460   -2.8845766   -0.7584019 
N     0.8524998   -1.6976176   -0.8561011 
H     0.1424273   -1.6049313   -1.5593310 
H    -0.3158260    0.6088237    0.6147775 
H     0.4251220    1.0002836   -0.9413797 
H     1.3001643    1.3083049    0.5613313 
H     4.5422728   -2.5466223    2.5550852 
C     1.8267859   -5.4741806   -1.7680800 
O     1.0272177   -5.3977009   -2.5970538 
O     2.6426776   -5.6159009   -0.9560135 
