15
Energy = -511.7490043899
C     0.8912477    0.9119974   -0.2225473 
C     1.6418287    1.2850504    0.8862063 
C     2.7221629    0.4966012    1.2431020 
N     3.0865811   -0.5985022    0.5875646 
C     2.3580593   -0.9420462   -0.4715256 
C     1.2600513   -0.2322877   -0.9189951 
O    -0.1776816    1.6061705   -0.6558091 
H     1.3925203    2.1700409    1.4612128 
H     3.3271785    0.7620117    2.1046241 
H     2.6728346   -1.8402794   -0.9934931 
H     0.6958268   -0.5487897   -1.7858784 
H    -0.3204439    2.3672891   -0.0888706 
C     5.2401738   -2.0687788    1.3921468 
O     5.1135000   -2.8174868    0.5182846 
O     5.4363426   -1.3672342    2.2922084 
