17
Energy = -584.0678142278
N     0.8762795    0.5660142   -0.0655672 
H     0.2399774    1.3307221    0.1233203 
C     1.9880103    0.3784556    0.6674343 
N     2.8403460   -0.5889120    0.4686174 
C     2.6026570   -1.4623813   -0.5319671 
C     1.4976621   -1.3651718   -1.3430440 
C     0.9044972   -2.0348936   -2.4450716 
C    -0.2403226   -1.3214890   -2.7189626 
N    -0.4465683   -0.2392476   -1.8874525 
C     0.5857187   -0.2780113   -1.0820705 
H     2.1599861    1.0903837    1.4653965 
H     3.3411069   -2.2479794   -0.6555556 
H     1.2679097   -2.9103907   -2.9577633 
H    -0.9617307   -1.5278286   -3.4973459 
C    -2.2720509    1.7877914   -1.4473783 
O    -2.9840529    1.4719252   -2.2963648 
O    -1.6127564    2.1764850   -0.5719906 
