17
Energy = -604.1536993736
O     0.8918512    1.3005299    0.3386800 
C     0.4959444    0.9209705   -0.9821783 
C    -0.9536012    1.1734720   -1.1963249 
C    -1.9113511    1.0358283   -0.2097887 
O    -1.7981635    0.7066779    1.0795159 
N    -3.0988036    1.3191255   -0.7618834 
H    -4.0016564    1.3285422   -0.3200641 
N    -2.9932068    1.6356227   -2.0669346 
C    -1.7015178    1.5539015   -2.3278721 
H     0.8266419    2.2564387    0.3989442 
H     0.7364533   -0.1433089   -1.0446949 
H     1.1025386    1.4329340   -1.7357492 
H    -0.8484148    0.7215749    1.2736316 
H    -1.3448211    1.7652939   -3.3250232 
C    -5.6328617    2.1587672   -2.8063186 
O    -5.4369232    2.4176967   -3.9138241 
O    -5.8999890    1.9108571   -1.7045500 
