18
Energy = -642.2891684579
N     1.1269684    0.6199074   -0.0755252 
C     0.2494150   -0.2133043    0.5139581 
O    -0.9082002    0.1654049    0.7792925 
C     0.6592171   -1.5563272    0.8367705 
C    -0.2591784   -2.4005887    1.4449640 
O    -1.5061285   -2.1482270    1.7862012 
N     0.3277923   -3.5938643    1.6569900 
H    -0.1264233   -4.3793515    2.0853445 
C     1.6345993   -3.5526409    1.1933696 
C     1.8654632   -2.3132642    0.6843797 
H     0.8336404    1.5583533   -0.2834232 
H     2.0645803    0.3327732   -0.2775064 
H    -1.6221375   -1.2015950    1.4974862 
H     2.2744350   -4.4142152    1.2716621 
H     2.7968711   -1.9865058    0.2498831 
C    -1.8860863    2.6989975    0.2749776 
O    -0.8740359    3.0404800   -0.1791929 
O    -2.9147045    2.4184476    0.7148096 
