20
Energy = -606.2068705927
O     3.0714010   -0.8329902    3.7576182 
C     2.8860318    0.5044516    4.1245091 
H     3.3792118    0.6247136    5.0953423 
C     3.6133435    1.4175604    3.2248969 
N     4.2370752    2.1156524    2.5574727 
C     1.4075491    0.7879511    4.3649802 
H     1.1471020    0.1985936    5.2483660 
C     0.6749682    2.1341104    4.2365471 
H     0.8232246    3.0521717    4.8084820 
C     0.7487243    1.9050276    2.7208409 
N     0.4171831    0.5066968    3.2363690 
C    -0.5703882    1.2388778    4.1378383 
H     2.4855693   -1.0397144    3.0190938 
H     1.7023989    1.9889093    2.2096728 
H    -0.0532101    2.3300878    2.1162154 
H    -0.8684587    0.6661134    5.0172919 
H    -1.4309543    1.6279941    3.5941599 
C     0.1917825   -1.5286040    1.3530468 
O    -0.9212413   -1.3058502    1.1446465 
O     1.3086452   -1.8050332    1.5059242 
