18
Energy = -642.2271557930
N     0.0560605   -0.4564900   -0.0492753 
C     1.3217588   -0.5524459    0.5290166 
C     2.4429546   -0.7670273   -0.1815192 
O     3.6821644   -0.7561405    0.3969890 
C     3.8507049   -0.5736082    1.7163001 
N     4.9927523   -0.5750781    2.2827487 
C     2.6561901   -0.3587409    2.5208350 
O     2.8534908   -0.1782908    3.8242319 
C     1.4392157   -0.3386491    1.9430076 
H    -0.6695078   -0.8844141    0.5048574 
H     0.0129299   -0.7873921   -1.0000337 
H     2.4977743   -0.9418414   -1.2445252 
H     5.7494479   -0.7296272    1.6256558 
H     3.8126501   -0.2294550    3.9755896 
H     0.5563429   -0.1510435    2.5412928 
C     6.5349870   -0.1880852    4.6474006 
O     5.5843659   -0.0688664    5.2996689 
O     7.5116147   -0.2999913    4.0409718 
