17
Energy = -662.0846109763
O     1.9718340    0.5637098    0.8213619 
C     1.2119766    1.5870211    0.3571439 
C     1.3798064    2.1740458   -0.8383307 
O     0.5768284    3.2019307   -1.2445996 
C    -0.4187821    3.6755450   -0.4732599 
N    -1.1813751    4.6308102   -0.8306847 
C    -0.6172059    3.0525199    0.8293458 
O    -1.6073061    3.5445539    1.5668575 
C     0.1756586    2.0387130    1.2306802 
H     2.6378921    0.3308631    0.1715589 
H     2.1241643    1.9195570   -1.5772317 
H    -0.9524105    4.9864792   -1.7522671 
H    -2.0186699    4.2603411    1.0530387 
H     0.0414520    1.5658717    2.1939508 
C    -3.4500526    6.2756158   -0.2636341 
O    -3.5829151    5.7958895    0.7830665 
O    -3.3572223    6.7826538   -1.2971854 
