22
Energy = -607.5618904325
C     1.5680514    0.4158109   -1.4071047 
C     0.2994524    1.1606621   -1.2302751 
C    -0.9449647    0.7811489   -0.7998009 
C    -1.4290419   -0.5521895   -0.3441098 
C    -2.3149032   -0.4501282    0.8924846 
O    -3.5052954    0.2550776    0.6415747 
N    -1.7949868    1.8661762   -0.8185526 
C    -1.0900384    2.8776644   -1.2477298 
N     0.1812287    2.5021011   -1.5132541 
H     0.9137106    3.0964972   -1.8569385 
H     1.4439708   -0.6121649   -1.0700777 
H     2.3848275    0.8573829   -0.8296754 
H     1.8800557    0.3818193   -2.4547219 
H    -0.5776159   -1.2022461   -0.1266322 
H    -2.0062667   -1.0379349   -1.1381588 
H    -1.7471464    0.0194297    1.7084484 
H    -2.6014008   -1.4512458    1.2207407 
H    -3.2471511    1.0735587    0.1863119 
H    -1.4439858    3.8876169   -1.3818186 
C    -5.3694853   -1.1410628   -0.7475924 
O    -5.9779706   -0.1895985   -0.9950165 
O    -4.8061762   -2.1316214   -0.5391895 
