21
Energy = -664.5204464781
C     0.8772427    0.7029284    1.1347524 
C     2.3180494    1.0738476    0.9280891 
H     2.9254538    0.7599053    1.7840422 
O     2.8276024    0.3725096   -0.2354267 
C     3.6655743    1.1638085   -0.9174877 
N     4.1957585    0.9155995   -2.0321941 
H     3.9127745    0.0105023   -2.3971651 
C     3.8866315    2.4466735   -0.1548594 
H     4.7296829    2.2929492    0.5346527 
O     4.0879266    3.5611057   -0.9646894 
C     2.5923007    2.5482084    0.6453685 
H     2.7137356    3.1098523    1.5783069 
O     1.5827856    3.0986614   -0.1511241 
H     0.7778958   -0.3761874    1.2515303 
H     0.2786404    1.0331577    0.2878331 
H     0.4973695    1.1850122    2.0370836 
H     4.4874936    3.2650461   -1.7927185 
H     2.0242842    3.7058893   -0.7574048 
C     5.7014250    2.1510179   -4.0917504 
O     5.7887358    1.1498035   -4.6591498 
O     5.6440408    3.1843079   -3.5677874 
