22
Energy = -607.5388526814
C     0.7985154    0.7675264   -0.6542457 
C    -0.0707430    0.1222676   -1.7315988 
H    -0.0604950   -0.9630201   -1.5843334 
C    -1.5295726    0.5659767   -1.6250315 
O    -1.6996706    1.9572872   -1.7481735 
C     0.4809659    0.3882190   -3.0989842 
N     0.1569946    1.4935995   -3.7607169 
N     0.8240292    1.4264971   -4.9137318 
H     0.7263623    2.1679018   -5.5825279 
C     1.5738398    0.3146751   -5.0175179 
C     1.3798791   -0.3910812   -3.8545889 
H     0.4122953    0.5365676    0.3404923 
H     0.8082915    1.8512836   -0.7752774 
H     1.8280194    0.4118469   -0.7167781 
H    -1.9180551    0.2912189   -0.6418038 
H    -2.1222219    0.0332815   -2.3806198 
H    -1.2555288    2.2173995   -2.5675525 
H     2.1719676    0.1114862   -5.8904882 
H     1.8173746   -1.3380765   -3.5866838 
C    -1.5414199    3.4188197    0.5330366 
O    -1.1730651    4.3606032   -0.0284399 
O    -1.9030110    2.5084769    1.1499013 
