16
Energy = -586.9507258632
C     0.8078388    0.8357417    0.0833730 
C     0.9021553    1.0215987    1.4635964 
C     0.3969084    2.1904143    1.9844110 
N    -0.1741659    3.1507556    1.2548714 
C    -0.2536916    2.9548145   -0.0506976 
C     0.2202344    1.8159183   -0.6956849 
O    -0.8244324    3.9102571   -0.7934950 
O     1.3001451   -0.3052001   -0.4325772 
H     1.3576422    0.2673045    2.0889996 
H     0.4478327    2.3789464    3.0517300 
H     0.1221395    1.7211184   -1.7700016 
H    -1.0929684    4.6189402   -0.1937294 
H     1.1744915   -0.3095578   -1.3841617 
C    -1.1475988    5.4421883    2.4546947 
O    -1.4943127    5.8611488    1.4284566 
O    -0.8317436    5.0927578    3.5078373 
