22
Energy = -607.5433735417
C     1.0317269    0.2101834    0.3891227 
C     1.9437134   -0.7107865   -0.3873197 
H     2.6807379   -0.1077050   -0.9381508 
O     2.6168156   -1.5309031    0.5474701 
C     1.1662631   -1.5465645   -1.4007071 
C     2.0258034   -2.4409726   -2.2320958 
N     3.1794662   -2.9082239   -1.7692748 
N     3.6744199   -3.6691191   -2.7464463 
H     4.5560121   -4.1287920   -2.6128091 
C     2.8761992   -3.7104810   -3.8281529 
C     1.7893930   -2.9227692   -3.5358136 
H     1.6098948    0.7823701    1.1151540 
H     0.2811374   -0.3696064    0.9296765 
H     0.5227434    0.9084261   -0.2776129 
H     3.1771162   -2.1288723    0.0323865 
H     0.6061821   -0.8819970   -2.0636433 
H     0.4264473   -2.1444277   -0.8570519 
H     3.1358702   -4.2798041   -4.7054157 
H     0.9445408   -2.7170417   -4.1711800 
C     1.3205319   -3.5552563    1.9559029 
O     0.2697039   -3.0873564    1.8242939 
O     2.3444253   -4.0694237    2.1121442 
