22
Energy = -607.5444165945
C     0.9154425    1.2337680    0.0580155 
C    -0.4337208    0.7858083   -0.3682193 
C    -1.0846561    0.8627552   -1.5794487 
C    -2.3428729    0.2613590   -1.3733959 
C    -3.4618714    0.0864742   -2.3468340 
C    -4.6529146   -0.6624971   -1.7708063 
O    -5.2433326    0.0090080   -0.6840441 
N    -2.4553233   -0.1533262   -0.1184875 
N    -1.2967425    0.1755366    0.4675055 
H    -1.1576816   -0.0707089    1.4317490 
H     1.5136277    0.4020497    0.4374580 
H     0.8568268    1.9892452    0.8450438 
H     1.4460725    1.6704020   -0.7860244 
H    -0.7001652    1.2929787   -2.4896310 
H    -3.0930060   -0.4471424   -3.2290708 
H    -3.7907117    1.0715418   -2.6929773 
H    -4.3453680   -1.6758542   -1.4838810 
H    -5.4251365   -0.7567058   -2.5365635 
H    -4.5538649    0.0749836   -0.0145835 
C    -3.1580173   -2.3577236    1.6888573 
O    -3.8664697   -2.9254482    0.9769180 
O    -2.4497083   -1.8219757    2.4353738 
