22
Energy = -607.5371052263
C     0.8707034    1.2076775   -0.0233616 
C     0.2974402   -0.1597242   -0.0879528 
C    -0.5058105   -0.7513649   -1.0429362 
C    -0.7277055   -2.0517187   -0.5760831 
N    -0.1095127   -2.2565572    0.5760687 
N     0.5031402   -1.0978081    0.8629443 
C     1.3029057   -0.9982228    2.0648870 
C     0.5904971   -1.5885455    3.2701000 
O     0.4382728   -2.9788767    3.1914328 
H     1.9626761    1.1897177    0.0031318 
H     0.5247967    1.7533815    0.8580064 
H     0.5667665    1.7717346   -0.9032991 
H    -0.8736086   -0.2946097   -1.9463042 
H    -1.3060582   -2.8459326   -1.0217567 
H     1.5085314    0.0581958    2.2387283 
H     2.2530059   -1.5157012    1.9099314 
H    -0.3779224   -1.0839502    3.3956171 
H     1.1907289   -1.3779969    4.1580423 
H    -0.0075759   -3.1477866    2.3475885 
C     1.9116161   -4.5448078    0.8349711 
O     1.0629904   -5.3241829    0.9243903 
O     2.7826193   -3.7885650    0.7340308 
