22
Energy = -607.5344531006
C     0.6280389    0.3334750   -0.2564910 
N    -0.3597538   -0.0431276   -1.2309423 
C    -0.9295755   -1.2465630   -1.4172405 
C    -1.7727602   -1.1290030   -2.4992321 
C    -1.6451637    0.2083222   -2.9116679 
C    -2.3178329    0.9207650   -4.0367058 
C    -1.3599478    1.7966454   -4.8366844 
O    -0.7983379    2.8360531   -4.0729010 
N    -0.7812461    0.8508642   -2.1277220 
H     1.5994272    0.4809135   -0.7309868 
H     0.7073634   -0.4552671    0.4887945 
H     0.3280692    1.2620194    0.2273594 
H    -0.6982234   -2.0826192   -0.7774833 
H    -2.3946024   -1.8962648   -2.9287820 
H    -3.1231374    1.5489762   -3.6448969 
H    -2.7757288    0.1845425   -4.7017154 
H    -1.9009970    2.2677146   -5.6597706 
H    -0.5739033    1.1664142   -5.2763009 
H    -0.3947571    2.4183373   -3.2995553 
C    -1.9754254    3.6530901   -1.3649376 
O    -3.0551919    3.3546579   -1.6524558 
O    -0.9100231    3.9702987   -1.0439509 
