21
Energy = -623.5789973722
N     0.8266509    0.9091634    0.2222318 
C     1.9741914    0.7356516   -0.5267471 
C     2.8990350   -0.2896665   -0.5680659 
C     3.8997157    0.1603451   -1.4514582 
C     5.1027247   -0.5656999   -1.9455801 
C     4.9546020   -0.9418305   -3.4186825 
O     4.8591639    0.1837503   -4.2509908 
N     3.6124171    1.3651566   -1.9249799 
N     2.4332684    1.6922787   -1.3535200 
H     2.0765463    2.6225127   -1.4834208 
H     0.5200877    0.0633260    0.6730042 
H     0.0640408    1.3458678   -0.2717407 
H     2.8535611   -1.2291524   -0.0429272 
H     5.2560343   -1.4685280   -1.3508818 
H     5.9884489    0.0648038   -1.8345330 
H     4.0779650   -1.5959896   -3.5358388 
H     5.8322362   -1.5067833   -3.7415865 
H     4.2949635    0.8235335   -3.7960565 
C     4.6407030    3.9426952   -2.5374219 
O     5.7365534    3.6263996   -2.7098035 
O     3.5540804    4.3163717   -2.3727939 
