16
Energy = -678.1179283349
O     0.2186034    0.5403589   -0.8208426 
C     0.8359338   -0.6167518   -0.4956840 
C     0.2925943   -1.8616750   -0.2759097 
N     1.3103418   -2.6985212    0.0210509 
H     1.2483373   -3.6795746    0.2337150 
N     2.4798314   -2.0683062    0.0063321 
C     2.2116563   -0.8072228   -0.3046370 
O    -1.0372995   -2.1569937   -0.3531722 
C    -1.4919510   -3.3996313   -0.1263273 
O    -0.8250439   -4.3479893    0.1562909 
H    -0.7260762    0.3885471   -0.8900940 
H     3.0022058   -0.0786886   -0.3822428 
H    -2.5809156   -3.3970341   -0.2445160 
C     4.3119421   -4.1037151    0.6719705 
O     3.3784544   -4.7903000    0.7217002 
O     5.2756854   -3.4690163    0.6374800 
