17
Energy = -662.1497971235
C     1.1331323    1.0648790    0.6513151 
C    -0.0187610    0.3918626    1.0409216 
C    -1.0571850    0.3376634    0.1256425 
N    -1.0114086    0.8844504   -1.0825942 
C     0.1051782    1.5214262   -1.4252093 
C     1.2126204    1.6475380   -0.6051876 
O     0.1473013    2.0715101   -2.6446495 
O    -2.1799188   -0.3037343    0.4729733 
O     2.2020521    1.1791261    1.4601823 
H    -0.1208181   -0.0756206    2.0111251 
H     2.0961826    2.1751708   -0.9302345 
H    -0.6951356    1.8921314   -3.0781164 
H    -2.7930704   -0.2461627   -0.2693172 
H     2.0218303    0.7368550    2.2923968 
C    -3.2203015    0.7027276   -2.8583513 
O    -2.6560505    1.2985425   -3.6738467 
O    -3.8332216    0.1026934   -2.0815844 
