19
Energy = -626.2468938726
C     0.8171157    0.7225737   -0.0190689 
C    -0.0755271    1.8994688    0.2018919 
C    -0.0650184    2.6643383    1.3577167 
C    -0.9105852    3.7485394    1.5203094 
C    -1.7729083    4.0398815    0.4747609 
O    -2.6105467    5.0813050    0.5864130 
N    -1.8137518    3.3322272   -0.6472290 
C    -0.9914579    2.3003533   -0.7717770 
O    -1.0479696    1.5973815   -1.9134701 
H     0.2397865   -0.1882825   -0.1930493 
H     1.4600188    0.5603692    0.8462163 
H     1.4522810    0.8634960   -0.8966076 
H     0.6253233    2.4027470    2.1522847 
H    -0.9145592    4.3543767    2.4145356 
H    -3.1298017    5.1325749   -0.2240564 
H    -1.7240359    1.9960498   -2.4736839 
C    -3.6479639    4.0013763   -2.7339884 
O    -4.0628171    4.8934774   -2.1254596 
O    -3.2715571    3.1230705   -3.3866358 
