17
Energy = -662.1310896338
O     0.3557068   -0.1244503    0.3205254 
C    -0.3817229    0.9560406    0.7154579 
C    -0.2616612    2.2319755    0.2254301 
N    -1.0132894    3.2508411    0.6525991 
C    -1.9095348    3.0091115    1.5897633 
O    -2.6643962    4.0326819    2.0191897 
C    -2.1175947    1.7540977    2.1590879 
C    -1.3383652    0.7102958    1.7120484 
O    -1.4873490   -0.5227186    2.2176156 
H     0.9739962    0.1310678   -0.3655720 
H     0.4689451    2.4607966   -0.5470398 
H    -2.3912200    4.8169089    1.5270991 
H    -2.8646323    1.6038641    2.9251434 
H    -0.8579492   -1.1048639    1.7785058 
C    -0.6000779    5.7447267   -0.4304098 
O    -1.4355767    6.2089657    0.2279692 
O     0.2432244    5.3571929   -1.1172232 
