16
Energy = -686.1511532599
O     0.3806439   -0.1944204   -1.3162555 
C     0.4517184   -1.0712411   -0.3010468 
C     1.7178530   -1.5014209    0.0884802 
C     1.7529070   -2.3982061    1.1304016 
F     2.9349324   -2.8416603    1.5430420 
N     0.7181101   -2.8775424    1.7802150 
C    -0.4779085   -2.4518228    1.3898378 
O    -1.5457988   -2.9239784    2.0346551 
C    -0.6740248   -1.5480484    0.3539452 
H    -0.5374670    0.0241593   -1.4907497 
H     2.6153649   -1.1518980   -0.3980158 
H    -1.2352048   -3.5333060    2.7184661 
H    -1.6757213   -1.2404456    0.0842857 
C     0.8583143   -4.7889581    4.0039031 
O    -0.3017700   -4.7254192    4.0343842 
O     2.0058239   -4.8850026    4.0126063 
