19
Energy = -659.4726082618
C     1.4019095    1.3705604   -0.7561261 
N     0.3708920    2.3570447   -0.6357970 
N     0.5587049    3.4570179    0.1226691 
C    -0.5395462    4.1716392   -0.0350658 
O    -0.7591425    5.3432661    0.5873074 
C    -1.4388336    3.5600649   -0.9154973 
O    -2.6596372    3.9778574   -1.3501981 
C    -0.8118317    2.3909614   -1.2935136 
N    -1.2445086    1.3486184   -2.1069422 
H     2.1336134    1.6342754   -1.5259211 
H     0.9427708    0.4154035   -1.0089754 
H     1.9161874    1.2871628    0.1992064 
H    -0.0006143    5.5262988    1.1535989 
H    -2.9423242    4.7070943   -0.7952308 
H    -2.2294101    1.4426556   -2.3077444 
H    -0.7384178    1.2845426   -2.9799679 
C     2.4625173    4.2804124    1.9537453 
O     1.8320439    5.2374796    2.1376035 
O     3.1409929    3.3561698    1.8249914 
