16
Energy = -600.1193547263
N     0.7220172    1.7767498    0.0409587 
H     1.6602932    2.0348428    0.2963251 
C    -0.0495067    2.2841336   -0.9676497 
N    -1.2343093    1.7505678   -1.0586868 
C    -1.2668106    0.8229781   -0.0471821 
C    -0.0409417    0.8260926    0.6564531 
N     0.2479005    0.0530847    1.6804511 
C    -0.7536214   -0.7618301    2.0076987 
C    -1.9736934   -0.7790088    1.3238258 
N    -2.2521839    0.0076718    0.2897252 
H     0.3242727    3.0626572   -1.6166849 
H    -0.5867609   -1.4298755    2.8447362 
H    -2.7507527   -1.4667002    1.6394410 
C     2.8706635    0.4021399    2.7343513 
O     2.7467907   -0.4256023    3.5279542 
O     3.0532458    1.2442655    1.9567183 
