15
Energy = -702.1749206115
O     0.6481884    0.8380114    0.0816743 
C     1.0192168    1.5631556   -0.9837627 
C     2.3476273    1.9126952   -1.1663738 
N     2.7081901    2.6315249   -2.2254533 
C     1.7959164    3.0054702   -3.0936030 
O     2.1247863    3.7279070   -4.1685367 
C     0.4625045    2.6358602   -2.8791068 
F    -0.4652779    3.0056437   -3.7443595 
N     0.0874438    1.9345905   -1.8524998 
H    -0.3032279    0.7052247    0.0225777 
H     3.1147117    1.6150383   -0.4634323 
H     3.0792045    3.8777206   -4.1413566 
C     5.4108925    3.4114812   -2.6662280 
O     5.7808295    2.9103232   -1.6958827 
O     5.0894511    3.9320314   -3.6531047 
