16
Energy = -583.1170310149
N     0.8467576    0.3962695    0.2108237 
C     2.1015823    0.8984472    0.4793210 
C     2.7393390    0.6968718    1.7040380 
N     3.9239732    1.2311541    1.9623545 
C     4.4876791    1.9717593    1.0269314 
O     5.6866858    2.5292825    1.2623321 
C     3.8568663    2.1774289   -0.1981639 
N     2.6805941    1.6400283   -0.4632045 
H     0.5862163   -0.4445587    0.6955613 
H     0.6145283    0.3925375   -0.7683885 
H     2.2874927    0.0973930    2.4881676 
H     5.9598115    2.2741246    2.1520977 
H     4.3266333    2.7824711   -0.9654981 
C     5.1772405    0.7831687    4.4237072 
O     6.0849483    1.4294054    4.0987687 
O     4.3056068    0.1300859    4.8050228 
