15
Energy = -610.9563437146
O     1.4086677    0.6422448    0.4230239 
C     1.8524557   -0.3458336    1.2040184 
N     2.9141938   -1.0264184    0.8024386 
C     3.3563402   -2.0116340    1.5819685 
C     2.7733580   -2.3636872    2.7816481 
C     1.6634331   -1.6262656    3.1665858 
F     1.0574627   -1.9181945    4.3143095 
C     1.1728563   -0.6021484    2.3944920 
H     1.9864341    0.6841239   -0.3509945 
H     4.2280751   -2.5457505    1.2192000 
H     3.1525475   -3.1677848    3.3951383 
H     0.3089878   -0.0244839    2.6887595 
C     4.2092821   -0.4265208   -1.5852972 
O     3.4503575    0.4251193   -1.8026738 
O     4.9957894   -1.2561952   -1.4309927 
