13
Energy = -452.5928588228
N     1.1227759   -0.6913473   -0.7705379 
C     0.2679882    0.2368138   -0.3587781 
N     0.5650532    1.3712106    0.2612859 
C     1.8557428    1.5898641    0.4880216 
C     2.8383244    0.6929331    0.1037652 
C     2.4089797   -0.4567445   -0.5356903 
H    -0.7830147    0.0443906   -0.5512313 
H     2.1092141    2.5160865    0.9950811 
H     3.8865068    0.8810452    0.2933385 
H     3.1078012   -1.2162398   -0.8728017 
C     0.4916090   -3.0661415   -2.1066324 
O    -0.6439612   -2.8462059   -2.1039376 
O     1.6156575   -3.3426080   -2.1411289 
