22
Energy = -665.4748424265
C     0.9996311    1.0236631   -0.1329623 
C     0.5941394    2.3415182    0.1146817 
C    -0.5503804    2.7884840   -0.4939329 
N    -1.3128242    2.0483936   -1.3120906 
C    -0.9125014    0.8120424   -1.5311779 
C     0.2353646    0.2379493   -0.9728002 
O    -1.6221009    0.0124648   -2.3383692 
C    -2.7944991    0.5531590   -2.9212731 
O     2.1233072    0.6160604    0.4769238 
C     2.5558390   -0.7052781    0.2424077 
H     1.1768849    2.9755404    0.7678312 
H    -0.8913162    3.8037925   -0.3261343 
H     0.4782800   -0.7851913   -1.2153991 
H    -3.2126479   -0.2457037   -3.5294856 
H    -2.5618253    1.4179234   -3.5432707 
H    -3.5088572    0.8600342   -2.1574642 
H     1.8099389   -1.4317710    0.5769905 
H     3.4682984   -0.8324902    0.8198088 
H     2.7705075   -0.8695655   -0.8173360 
C    -3.5494778    4.1664186   -1.9472005 
O    -2.8655700    4.9102411   -1.3838115 
O    -4.2628594    3.4563162   -2.5168665 
