19
Energy = -626.2070166650
C     0.3840927    1.4313663    0.1764132 
O     1.3396209    2.4195434   -0.1221782 
C     2.3430587    2.0731839   -0.9614974 
C     2.5020449    0.8300428   -1.5481675 
N     3.5184660    0.5492539   -2.3709499 
C     4.4042291    1.4827692   -2.6380576 
O     5.4198723    1.1856931   -3.4658824 
C     4.3334505    2.7699033   -2.0973086 
C     3.2905747    3.0578609   -1.2530410 
H    -0.3299413    1.8910396    0.8558373 
H     0.8431254    0.5662419    0.6659427 
H    -0.1393616    1.0959145   -0.7248464 
H     1.8069463    0.0194373   -1.3683827 
H     5.3115272    0.2657921   -3.7375324 
H     5.0868436    3.5040582   -2.3475536 
H     3.1836202    4.0374150   -0.8037467 
C     3.6672103   -1.9951602   -3.4268003 
O     2.7033351   -2.3260205   -2.8844117 
O     4.6410430   -1.7367745   -4.0031741 
