17
Energy = -621.1588741955
O     0.9000446   -0.4012889    0.0632232 
C     1.0390322    0.8185231   -0.5000180 
C     0.2163745    1.6911050   -1.1607501 
N     0.8960123    2.8405999   -1.5379579 
C     2.1027705    2.6282086   -1.0952668 
N     3.3133492    3.2546314   -1.0648094 
H     3.4880950    4.1593715   -1.4592001 
C     4.2089041    2.4355391   -0.4087687 
C     3.5778472    1.2987828   -0.0251410 
N     2.2662080    1.4275918   -0.4571662 
H    -0.0052682   -0.6919707   -0.0547290 
H    -0.8295639    1.5601113   -1.3886637 
H     5.2348656    2.7234745   -0.2628091 
H     3.9441299    0.4378067    0.5022560 
C     0.7051575    5.3005417   -2.7590562 
O    -0.4163281    5.2189145   -3.0162947 
O     1.8334685    5.4684192   -2.5407854 
