19
Energy = -659.4869399464
C     1.2662061    0.8889330   -0.2460895 
O     0.7510208   -0.3288216   -0.7418476 
C     0.6819373   -0.4447633   -2.0779494 
C     0.2092149   -1.5426191   -2.7365098 
N    -0.3077429   -2.7826062   -2.3574719 
N     0.3357061   -1.1967947   -4.0882215 
C     0.8535209    0.0329886   -4.1387565 
O     1.0850425    0.6231751   -5.3112679 
N     1.0832930    0.5368270   -2.9488354 
H     1.2466916    0.8030269    0.8383837 
H     0.6549409    1.7368940   -0.5614873 
H     2.2902815    1.0552061   -0.5861791 
H    -1.1579662   -2.7047359   -1.8177242 
H     0.3531015   -3.3399705   -1.8350922 
H     0.0793293   -1.7784622   -4.8649358 
H     1.4557124    1.4956371   -5.1284857 
C     2.2254057    3.2739548   -3.1614421 
O     2.3254491    3.4684381   -2.0302015 
O     2.1498727    3.1388156   -4.3123254 
