17
Energy = -621.1720857077
O     0.6155426    0.7919570   -0.1097421 
C    -0.5423706    1.3067716   -0.5504977 
C    -1.7999993    0.9527836   -0.1262231 
N    -2.6362071    1.7680185   -0.8829026 
C    -3.9537714    2.0986472   -1.1311306 
C    -3.9365350    3.0639971   -2.0862539 
N    -2.6221257    3.3242321   -2.4220321 
C    -1.8297848    2.5188023   -1.6728616 
N    -0.5455948    2.2776313   -1.5103953 
H     1.3185481    1.2379539   -0.5906355 
H    -2.1477806    0.2411244    0.5977099 
H    -4.7843894    1.6390472   -0.6276150 
H    -4.7549070    3.5833864   -2.5509036 
H    -2.2831038    3.9864254   -3.0939432 
C     1.0757469    3.8162610   -3.0839026 
O     2.0591458    3.3619360   -2.6830116 
O     0.1355872    4.3221370   -3.5368741 
