19
Energy = -585.2641636069
C     1.3776111    0.5298535    0.2614624 
N     1.0902777    1.8851734   -0.1241130 
C     1.9352860    2.7521566   -0.7759025 
C     1.3669327    4.0050983   -0.8973539 
C     0.1051835    3.8851389   -0.2711135 
C    -0.0306863    2.5912648    0.1915529 
N    -1.2194980    2.3642561    0.8063467 
C    -1.8262574    3.5283255    0.7221958 
N    -1.0817224    4.4821827    0.0842379 
H    -1.3678243    5.4289074   -0.0791957 
H     2.0422585    0.0749378   -0.4720612 
H     0.4494530   -0.0379977    0.2990425 
H     1.8499553    0.4839203    1.2460849 
H     2.8983813    2.4091238   -1.1180574 
H     1.8194953    4.8542318   -1.3813122 
H    -2.8113483    3.7358593    1.1095972 
C    -2.6391967    0.2541367    1.9188898 
O    -1.7970577   -0.5182239    1.7340930 
O    -3.5250798    0.9664789    2.1354268 
