19
Energy = -622.3474442293
O     0.7659967    0.9408014    0.1968823 
C     0.0721559    0.4986429    1.2445538 
N    -1.1643157    0.1019531    1.2607869 
C    -1.4168108   -0.2486628    2.5784801 
C    -0.3032297   -0.0521284    3.3359793 
N     0.6550208    0.4339092    2.4626239 
H     1.6128647    0.6377494    2.6826534 
N     0.0342719   -0.2860199    4.6651611 
C    -0.1733045    0.8021697    5.6221638 
C    -1.0565424   -0.3820187    5.6087397 
H     0.1722763    0.9087159   -0.5651912 
H    -2.3743194   -0.6376004    2.8809726 
H    -0.5839503    1.7275783    5.2329307 
H     0.5964161    0.9019950    6.3770949 
H    -2.0622333   -0.2367292    5.2298171 
H    -0.9485788   -1.1543512    6.3599087 
C    -2.4721055    0.1928020   -1.1484807 
O    -1.5027853    0.6039573   -1.6424474 
O    -3.4738608   -0.2089621   -0.7452139 
