18
Energy = -584.2957144140
C     0.1392804    0.3026242    0.7624565 
O    -0.1237640   -0.0513852   -0.5822965 
C    -1.4033666    0.0532463   -0.9715465 
C    -1.8587316   -0.2448430   -2.2335610 
N    -1.2677468   -0.6995217   -3.4162533 
N    -3.2135089    0.0105939   -2.1612177 
H    -3.8498769   -0.1086110   -2.9290287 
C    -3.4978344    0.4304695   -0.9183306 
N    -2.4144416    0.4677869   -0.1672283 
H    -0.4188784   -0.3307436    1.4544513 
H    -0.1290059    1.3425601    0.9574352 
H     1.2082263    0.1598383    0.9052870 
H    -0.5660807   -0.0606210   -3.7638453 
H    -0.8362288   -1.6065582   -3.3047091 
H    -4.4889692    0.6989377   -0.5909117 
C    -3.2870969    1.3981496    2.4122485 
O    -2.2453127    1.3771154    2.9136089 
O    -4.3562285    1.4418214    1.9699269 
