26
Energy = -779.9351484592
C     0.9950737    0.9204483   -0.1344640 
C     0.7962006    1.7595294   -1.2268034 
C     1.4763302    1.4551831   -2.3933638 
N     2.2955363    0.4201103   -2.5320000 
C     2.4585181   -0.3658750   -1.4844236 
C     1.8396131   -0.1786889   -0.2518208 
O     3.2691874   -1.4280944   -1.5933507 
C     3.8809800   -1.6438015   -2.8523868 
O     1.2850153    2.2650940   -3.4435795 
C     1.9579081    1.9363862   -4.6450188 
O     0.3292135    1.2366021    0.9862159 
C     0.4711159    0.3868033    2.1032583 
H     0.1417837    2.6157134   -1.1629493 
H     2.0344578   -0.8698077    0.5525783 
H     4.4787311   -2.5449149   -2.7354450 
H     4.5177669   -0.8024509   -3.1296769 
H     3.1318676   -1.7858121   -3.6327106 
H     1.6638628    2.7000327   -5.3615686 
H     1.6620482    0.9493805   -5.0037941 
H     3.0401686    1.9472433   -4.5069652 
H    -0.1494509    0.8145594    2.8869740 
H     1.5096727    0.3495735    2.4436272 
H     0.1223877   -0.6236393    1.8759008 
C    -1.0089675   -1.3718850   -1.4437475 
O    -0.6125261   -1.4061171   -2.5290328 
O    -1.4231330   -1.3531266   -0.3628089 
