19
Energy = -622.3814139202
O    -0.4452966   -0.3554136   -0.3639100 
C    -0.9559916    0.7460244   -0.9319880 
C    -0.7987915    1.1550780   -2.2273386 
N    -1.6077369    2.2886308   -2.3075147 
C    -1.7675723    3.4499631   -3.1456357 
C    -2.9045055    4.1666202   -2.3940827 
N    -2.7075247    3.7465261   -1.0035779 
C    -2.0924438    2.5137349   -1.0783425 
N    -1.7563661    1.5973133   -0.2065486 
H    -0.7234142   -0.3539318    0.5583499 
H    -0.2918926    0.7188801   -3.0674959 
H    -2.0432543    3.1961489   -4.1688419 
H    -0.8503518    4.0491576   -3.1618691 
H    -3.8711619    3.8275797   -2.7835930 
H    -2.8441923    5.2494543   -2.4919334 
H    -3.5032543    3.8087186   -0.3887563 
C    -2.5296819    1.0760250    2.3476072 
O    -1.8110983    0.1663993    2.3907899 
O    -3.2712233    1.9607992    2.3879345 
