17
Energy = -621.1504492249
N     1.3568947    0.8100152    0.0001888 
C     1.5444351   -0.0372029   -1.0705615 
C     1.4158239    0.2357712   -2.4169182 
N     1.7987056   -0.9511777   -3.0319580 
C     1.9774510   -1.6142542   -4.2305881 
C     2.3952883   -2.8517412   -3.9038718 
O     2.4831247   -2.9890562   -2.5388058 
C     2.1104678   -1.8059110   -2.0374109 
N     1.9784661   -1.3249290   -0.8358387 
H     0.6677070    1.5282478   -0.1422521 
H     1.2238342    0.3135489    0.8673830 
H     1.1287332    1.1179752   -2.9578876 
H     1.8036735   -1.1742592   -5.1958437 
H     2.6615225   -3.7092482   -4.4928914 
C     2.0009774   -2.5370275    1.7177279 
O     1.5272605   -1.5844958    2.1793287 
O     2.4697936   -3.5150088    1.3219132 
