17
Energy = -584.0862714231
N     1.2318430    0.5243291    0.4387816 
H     1.5174676   -0.2579389    0.9986840 
C     1.1742110    0.5612278   -0.9261965 
N     0.7692896    1.6999881   -1.4024941 
C     0.5385002    2.4821106   -0.2934862 
C     0.8250958    1.7564417    0.8820073 
C     0.6650068    2.3419594    2.1245323 
C     0.2164856    3.6509586    2.1068765 
C    -0.0429318    4.2935298    0.8900300 
N     0.1088174    3.7368799   -0.3014228 
H     1.4481124   -0.2976624   -1.5212273 
H     0.8726368    1.8223472    3.0519984 
H     0.0620864    4.1891400    3.0328037 
H    -0.3942765    5.3202755    0.8964060 
C    -0.1472973    3.8836029   -3.3150533 
O     0.9310603    4.2881417   -3.4236098 
O    -1.2376800    3.5010592   -3.2578060 
