17
Energy = -617.3236330157
N     0.6023483    0.1316855    0.8752828 
C     1.1902174    1.2766721    0.3665686 
N     0.7439947    2.0372066   -0.5955157 
N     1.5611621    3.1416911   -0.7281352 
C     2.4918906    2.9751475    0.1682297 
N     3.6130224    3.5888040    0.6395694 
H     3.9820535    4.4467408    0.2749139 
C     4.1179006    2.8211414    1.6706297 
C     3.3320334    1.7335878    1.8499819 
N     2.3204833    1.8361823    0.9012956 
H    -0.2793289   -0.0289566    0.4097046 
H     1.1854368   -0.6899395    0.7867699 
H     5.0048524    3.1112285    2.2065519 
H     3.4010888    0.9308112    2.5603558 
C     2.0205511    5.4674443   -2.1487164 
O     1.1118419    5.3944370   -2.8535107 
O     2.9594888    5.6185009   -1.4802108 
