16
Energy = -637.1647631752
N     1.1227335    0.2941354    0.1055391 
C    -0.0085044   -0.3740583    0.4713313 
N    -0.5487462   -1.3603116   -0.2252634 
C    -1.6804772   -1.6177884    0.4708572 
C    -1.8490926   -0.8358381    1.5747647 
N    -0.7264188   -0.0217540    1.5847076 
H    -0.5675828    0.7997296    2.1372107 
C    -3.0331796   -1.3138862    2.1527406 
N    -3.5295086   -2.2923644    1.4258121 
O    -2.6629365   -2.4982457    0.3494498 
H     1.6113009   -0.1592387   -0.6518572 
H     1.7279928    0.5909617    0.8524247 
H    -3.5727155   -1.0135862    3.0377565 
C     0.9178424   -2.4880499   -2.4067761 
O     0.1085624   -3.2675186   -2.6635581 
O     1.7690033   -1.7266425   -2.1955534 
