17
Energy = -617.3309281645
N     1.1735085   -0.1233459   -0.2870752 
C     1.3518226    0.6457816    0.8389327 
N     1.4473423    0.2054675    2.0600012 
C     1.4824265    1.3540266    2.8380118 
C     1.4147958    2.4674543    2.0361733 
N     1.5436893    3.5587524    2.8084660 
H     1.4721130    4.5313816    2.5802463 
N     1.6476429    3.1973576    4.1109426 
C     1.6292313    1.8715232    4.1400458 
N     1.3674090    2.0331783    0.7338835 
H     1.0417384    2.5373323   -0.0701541 
H     1.2289501   -1.1063509   -0.0623117 
H     1.7783779    0.1138388   -1.0584712 
H     1.7190337    1.3614687    5.0857984 
C     1.6300338   -2.5063019    2.6204977 
O     1.5541776   -2.7573412    1.4897173 
O     1.7114622   -2.3390318    3.7593797 
