20
Energy = -602.4804705113
N     0.9548873    1.7100687    0.1631648 
C     1.3585001    1.1985168    1.3926416 
C     0.7093420    0.5416304    2.4048982 
N     1.5571840    0.3315555    3.4605681 
C     2.7040143    0.8407015    3.1030826 
N     2.6357225    1.3844146    1.8600780 
H     3.3520657    1.9016524    1.3834078 
N    -0.6411249    0.1448467    2.3857040 
C    -0.9448053   -1.1137355    3.0652944 
C    -1.3302875    0.1696576    3.6750327 
H    -0.0528745    1.7007288    0.0925434 
H     1.3310087    1.1912250   -0.6199320 
H     3.6110958    0.8361102    3.6867113 
H    -0.1034344   -1.6317943    3.5095714 
H    -1.6922778   -1.7281519    2.5784868 
H    -0.7448058    0.5030579    4.5232906 
H    -2.3618464    0.4982131    3.6380423 
C    -2.7764958    0.5113045    0.4666805 
O    -3.4341366   -0.1456713    1.1532325 
O    -2.1736224    1.1770455   -0.2650929 
