20
Energy = -701.4142127750
C     0.7192404    0.7531053   -0.2407571 
C    -0.5156721    1.0804364    0.3127420 
C    -1.3649212    0.0388143    0.6269979 
N    -1.0746462   -1.2471169    0.4327716 
C     0.1067832   -1.5289781   -0.0957365 
C     1.0531115   -0.5794625   -0.4561772 
O     0.4042795   -2.8202165   -0.2940563 
O    -2.5602620    0.3212358    1.1617432 
O     1.5263119    1.7818928   -0.5369526 
C     2.7881432    1.4951951   -1.0981630 
H    -0.7960158    2.1077363    0.4886061 
H     1.9908447   -0.8999072   -0.8804483 
H    -0.3492309   -3.3438723    0.0027561 
H    -3.0169478   -0.5134291    1.3172358 
H     3.2719034    2.4556899   -1.2582671 
H     2.6879945    0.9755749   -2.0549673 
H     3.3962349    0.8914204   -0.4190929 
C    -2.9118886   -3.3045440    1.1109649 
O    -3.6830182   -2.5342312    1.4988364 
O    -2.1816744   -4.1212276    0.7381930 
