14
Energy = -535.7548881213
C     0.8184682    0.1089977    0.0054408 
C     0.6854530   -1.0068699   -0.7959087 
C     1.5278984   -1.0964338   -1.8929075 
N     2.4366274   -0.1785313   -2.2019138 
C     2.5383229    0.8827842   -1.4099814 
C     1.7524737    1.0825303   -0.2858401 
F     0.0359486    0.2480102    1.0728988 
H    -0.0454516   -1.7710865   -0.5701071 
H     1.4676086   -1.9524157   -2.5572856 
H     3.2890608    1.6158151   -1.6871128 
H     1.8588980    1.9576928    0.3402780 
C     4.0875538   -0.4438404   -4.3896990 
O     3.6230464   -1.4656446   -4.6726244 
O     4.5989459    0.5708530   -4.1682388 
