17
Energy = -773.4407960572
C     1.0494004    0.6108595   -0.3906235 
C     0.7972456    1.7859926    0.2971530 
C    -0.3173314    1.8334846    1.1201586 
N    -1.1505327    0.8124247    1.2782481 
C    -0.8984497   -0.3082829    0.6127211 
C     0.1874711   -0.4620089   -0.2347493 
C     2.2194597    0.5136592   -1.3308572 
F     2.6995163   -0.7317061   -1.3979659 
F     1.8667945    0.8691853   -2.5742037 
F     3.2228259    1.3144678   -0.9605560 
H     1.4526318    2.6411670    0.2035600 
H    -0.5505017    2.7328614    1.6805829 
H    -1.5976156   -1.1235796    0.7668833 
H     0.3576853   -1.3967276   -0.7516160 
C    -3.3590974    0.9430903    2.9565257 
O    -3.6612863   -0.1406527    2.6840150 
O    -3.1118868    2.0291836    3.2706447 
