16
Energy = -789.4641702265
C     1.1678587    0.9529385    0.1058169 
C     1.4862563   -0.3216893    0.5624300 
N     2.7350788   -0.6723500    0.8269495 
C     3.6745233    0.2469013    0.6380618 
C     3.3462260    1.5149892    0.1831787 
N     2.0990840    1.8723888   -0.0841357 
C     4.3946145    2.5805461   -0.0418763 
F     4.4197981    2.9704756   -1.3167992 
F     4.1580519    3.6570114    0.7079492 
F     5.6153666    2.1290430    0.2688695 
H     0.1421640    1.2321269   -0.1091229 
H     0.7193860   -1.0732530    0.7172616 
H     4.6980188   -0.0346445    0.8526109 
C     3.2564968   -3.2958940    1.7153689 
O     2.1252683   -3.5401956    1.6870341 
O     4.3960148   -3.1017105    1.7602319 
