14
Energy = -527.7859619795
C     1.0628860    1.2240540   -0.5435507 
C     0.5809942    0.0100115   -0.0984805 
N    -0.4748887   -0.5687611   -0.6739205 
C    -1.0379687    0.0620276   -1.6817066 
C    -0.5427030    1.2951577   -2.1297578 
N     0.4994123    1.8704452   -1.5635665 
O    -1.1429762    1.9005887   -3.1557119 
H     1.9202042    1.6990375   -0.0789114 
H     1.0447836   -0.5098463    0.7312162 
H    -1.8975113   -0.3897410   -2.1643766 
H    -0.6740342    2.7279751   -3.3305025 
C     1.4352477    4.3581205   -2.4994434 
O     0.6173549    4.3558309   -3.3237590 
O     2.2664394    4.4140950   -1.7020170 
