16
Energy = -491.8757813101
C    -0.2471784    0.8150481    0.5459528 
C    -0.0867526   -0.3472270   -0.2081428 
N     0.0414749   -0.2694882   -1.5317915 
C     0.0100954    0.9374272   -2.0788079 
C    -0.1495785    2.0835209   -1.3144649 
N    -0.2792389    2.0235265    0.0042038 
C    -0.0520557   -1.6995796    0.4203434 
H    -0.3527864    0.7561110    1.6250429 
H     0.1148359    0.9896803   -3.1576917 
H    -0.1733197    3.0652246   -1.7753470 
H    -0.8423747   -2.3292010    0.0085290 
H    -0.1749019   -1.6395198    1.5011294 
H     0.8944484   -2.1957475    0.1994005 
C     0.3456611   -2.3252984   -3.4742430 
O     0.3637117   -1.5074032   -4.2931798 
O     0.3341968   -3.1861798   -2.7014318 
