15
Energy = -751.4041777421
N     1.2500988    1.9493109    0.5060881 
C     1.3368534    2.1029401   -0.7874125 
N     2.4866961    1.5884489   -1.2797537 
H     2.7675979    1.5937927   -2.2444950 
C     3.1789781    1.0719219   -0.2229120 
C     2.3950300    1.3060670    0.8739808 
C     0.3126094    2.7576469   -1.6564007 
F     0.0862478    4.0198173   -1.3016928 
F     0.7442846    2.7632511   -2.9330162 
F    -0.8532993    2.1157788   -1.6299244 
H     4.1383394    0.5988537   -0.3414734 
H     2.5878549    1.0502103    1.9029801 
C    -0.6196976    2.5397790    2.5604635 
O     0.1179542    2.0780074    3.3245850 
O    -1.3923061    3.0111339    1.8411547 
