16
Energy = -1038.145913585
N     2.0199010    1.7347348   -0.0536437 
C     2.9724080    1.4389978    0.7878834 
N     3.6192569    0.3005263    0.4247644 
H     4.3812602   -0.1319003    0.9165548 
C     3.0461068   -0.1584020   -0.7234805 
C     2.0604968    0.7460891   -0.9944152 
S     0.9391215    0.6892637   -2.3253143 
O     1.3026403   -0.4127747   -3.1459544 
O    -0.3830182    0.8401925   -1.8072116 
O     1.2985463    1.9926073   -3.1375213 
H     3.2363023    2.0035424    1.6681149 
H     3.3604045   -1.0489524   -1.2380808 
H     0.8700735    2.7519016   -2.7058785 
C    -0.3800531    3.5048490   -0.3600969 
O    -0.8180245    3.1733498    0.6513096 
O     0.0344027    3.8899570   -1.3756023 
