17
Energy = -567.0592245469
N     0.4594663   -0.1179314    0.0048960 
C     0.7165683    0.0078895    1.3041664 
N     0.0009146    0.6672512    2.1947112 
C    -1.0994274    1.2693915    1.7271498 
C    -1.4730593    1.2137676    0.4075256 
C    -0.6306994    0.4836044   -0.4368673 
O    -0.9557855    0.4048149   -1.7225890 
C    -0.0886163   -0.3416861   -2.5674952 
H     1.6125883   -0.4864985    1.6673730 
H    -1.6933111    1.8139279    2.4541698 
H    -2.3609778    1.6992541    0.0284778 
H     0.9144314    0.0850525   -2.5678757 
H    -0.5291542   -0.2802090   -3.5591756 
H    -0.0273565   -1.3796757   -2.2403315 
C     0.5856943    0.9086137    4.8927900 
O     1.5450564    0.2673764    4.8089257 
O    -0.3604015    1.5578801    5.0487099 
