14
Energy = -544.7577512441
N     1.3469852    0.4379164   -0.2496212 
C     0.3237396   -0.2647308    0.2115107 
N     0.1543296   -0.6996947    1.4551811 
C     1.1089218   -0.3995817    2.3262735 
C     2.2293823    0.3300167    1.9667563 
C     2.2948843    0.7296011    0.6389789 
C     3.4215500    1.4921772    0.1740751 
N     4.3387962    2.1007259   -0.1580629 
H    -0.4572276   -0.5104309   -0.5004189 
H     0.9693574   -0.7553011    3.3419593 
H     3.0098636    0.5772857    2.6724776 
C    -2.0195177   -2.1803990    2.5177887 
O    -2.5845542   -2.2165749    1.5096960 
O    -1.4913793   -2.1703183    3.5483851 
