16
Energy = -789.4345746387
N    -0.6273335   -0.3242796    0.4462874 
C     0.0072791   -1.3431735   -0.1086578 
C     1.0110932   -2.0575341    0.5388268 
C     1.3422345   -1.6686572    1.8131284 
C     0.6365938   -0.5913369    2.3359006 
N    -0.3107618    0.0498432    1.6693568 
C     1.6873833   -3.2034505   -0.1602207 
F     2.3075417   -2.7896881   -1.2705666 
F     2.5977461   -3.7925209    0.6170781 
F     0.7997701   -4.1345839   -0.5249325 
H    -0.3048399   -1.5961735   -1.1154670 
H     2.1105753   -2.1717306    2.3843300 
H     0.8300456   -0.2161587    3.3337743 
C    -1.4428996    2.1552647    3.2565611 
O    -0.6968699    1.8361342    4.0849109 
O    -2.2052831    2.5130589    2.4664098 
