17
Energy = -567.0094709493
N     2.2016959    1.1325320   -0.0532318 
C     1.3801980    1.5112394    0.9009036 
C     0.7893153    2.7811580    0.9551849 
C     1.1093193    3.6557096   -0.0628076 
C     1.9847678    3.1791911   -1.0321518 
N     2.5117141    1.9672372   -1.0313544 
O    -0.0267878    3.0270361    1.9844983 
C    -0.6297142    4.3032562    2.0483938 
H     1.1645661    0.7832907    1.6751249 
H     0.7150001    4.6599542   -0.1256289 
H     2.2844089    3.8075541   -1.8634584 
H    -1.2455607    4.3025453    2.9437549 
H    -1.2596631    4.4851503    1.1733549 
H     0.1241968    5.0914477    2.1257171 
C     4.2053560    1.5201293   -3.2232262 
O     4.4530816    0.4230130   -2.9598759 
O     4.0012631    2.6143756   -3.5489130 
