14
Energy = -527.7443651700
N     1.5792759    1.6214862    0.9118972 
C     0.9388019    2.3890242    0.0486496 
C    -0.4365814    2.6162916    0.1041846 
C    -1.1255689    1.9931285    1.1230264 
C    -0.3789820    1.2063067    1.9846483 
N     0.9322950    1.0219061    1.8876623 
O    -1.0905963    3.3952164   -0.7714888 
H     1.5572045    2.8420364   -0.7219650 
H    -2.1942915    2.1167613    1.2376068 
H    -0.8549508    0.6867041    2.8084513 
H    -0.4741942    3.7537025   -1.4152099 
C     4.3404029    1.5366905    0.2959493 
O     4.1079168    2.2605475   -0.5803122 
O     4.6385181    0.8173770    1.1485662 
