15
Energy = -507.9213500726
N     0.5330922    0.0356730   -0.0660750 
C     1.2212533   -0.6738612    0.8165850 
N     2.1430037   -1.5835251    0.5324993 
C     2.3748345   -1.7759996   -0.7669232 
N     1.7389691   -1.1187858   -1.7384260 
C     0.8419401   -0.2372098   -1.3283166 
C     3.4127540   -2.7653566   -1.1608444 
H     1.0147977   -0.5002669    1.8687621 
H     0.3069476    0.3139382   -2.0966945 
H     4.3277806   -2.2326479   -1.4339078 
H     3.0884054   -3.3188267   -2.0408953 
H     3.6381615   -3.4378302   -0.3370761 
C     3.1519736   -2.8562844    2.9125819 
O     2.4829525   -2.1413172    3.5294951 
O     3.8367254   -3.5933218    2.3415122 
