16
Energy = -583.0977946024
N     1.1407977   -0.7803687    1.1142056 
C     0.0097249   -0.3029446    1.6327754 
N    -1.2101067   -0.7073958    1.3437207 
C    -1.2576085   -1.6878795    0.4422395 
N    -0.2064987   -2.2488978   -0.1478690 
C     0.9606464   -1.7503595    0.2316652 
O    -2.4703106   -2.1049613    0.1410345 
C    -2.5875557   -3.1519678   -0.8163136 
H     0.1048074    0.4953960    2.3629917 
H     1.8502126   -2.1768495   -0.2230098 
H    -3.6544188   -3.3346864   -0.9107723 
H    -2.0748960   -4.0498341   -0.4720431 
H    -2.1652349   -2.8491653   -1.7741451 
C     3.7608325    0.0491229    1.7303207 
O     3.3895431    0.8384042    2.4901638 
O     4.1873114   -0.7244188    0.9820542 
