13
Energy = -543.8368393261
N     0.6081310    0.4044239    0.0160054 
C    -0.4708554    1.1674260   -0.0737547 
N    -0.8063162    2.1384108    0.7614493 
C     0.0512978    2.3248458    1.7656672 
N     1.1637709    1.6295575    1.9654312 
C     1.3805564    0.6916584    1.0603881 
O    -0.2145068    3.2744316    2.6402331 
H    -1.1459580    0.9856935   -0.9050040 
H     2.2807274    0.0966357    1.1837769 
H    -1.0451068    3.6992818    2.3807950 
C    -3.1303047    3.7671388    0.5832425 
O    -3.5224666    3.2516336   -0.3700814 
O    -2.7787591    4.3191567    1.5430067 
