16
Energy = -1092.236174823
N     1.2476574   -0.5466469   -0.4174824 
C     1.9725538   -1.1402660    0.5280215 
N     2.7917046   -0.5269591    1.3694322 
C     2.8557803    0.7894072    1.2202230 
N     2.1803525    1.4923906    0.3201336 
C     1.4036716    0.7575478   -0.4592852 
S     0.4200773    1.6871762   -1.6525764 
O    -0.0948628    0.8026949   -2.6280025 
O    -0.4149302    2.5424266   -0.8704662 
O     1.5325014    2.5506629   -2.3466478 
H     1.8823026   -2.2184003    0.6122459 
H     3.5116423    1.3380857    1.8885022 
H     1.7256978    3.3315329   -1.7964487 
C     1.4452840    4.4355116    0.6251122 
O     1.0628812    4.2568483    1.6958837 
O     1.8472794    4.6528866   -0.4436525 
