12
Energy = -468.6279152653
N    -1.2078674    0.2724619   -1.2940956 
C    -0.2099489    0.3979363   -0.4300729 
N    -0.0351319    1.4153205    0.4033494 
C    -0.9645969    2.3591882    0.3255168 
N    -2.0066424    2.3482957   -0.4944646 
C    -2.0721568    1.2793893   -1.2780782 
H     0.5286046   -0.3976967   -0.3995915 
H    -0.8586599    3.2105963    0.9913369 
H    -2.9085060    1.2235329   -1.9686608 
C     2.0927314    1.7777161    2.2510019 
O     1.6275379    2.7843401    2.5829581 
O     2.5953301    0.7795344    1.9525422 
