13
Energy = -485.8460460686
N     1.4138681    2.0884182    0.8892930 
C     1.2319290    0.9198901    1.4828365 
N    -0.0146607    0.4435131    1.2603458 
N    -0.6219742    1.3202574    0.5204918 
N     0.2438114    2.2775825    0.3181936 
H     0.0395828    3.0984256   -0.2302676 
C     2.2588004    0.2231420    2.2873564 
H     2.4659757   -0.7625008    1.8692143 
H     1.9089288    0.0800610    3.3104118 
H     3.1785898    0.8039230    2.3040267 
C     2.7987045    4.5129241    0.0670198 
O     1.7917911    4.7415939   -0.4621358 
O     3.8139152    4.3197769    0.5793824 
