14
Energy = -561.0063832822
N     0.7744627    0.3849229   -0.5053601 
C     2.0251852    0.1269533   -0.1594266 
N     2.2732731   -1.1926534   -0.0425059 
N     1.1472147   -1.7893338   -0.3224356 
N     0.2965022   -0.8424511   -0.5868733 
H    -0.6631395   -1.0207092   -0.8399838 
O     2.9039699    1.0885409    0.0398969 
C     4.2105342    0.6565697    0.4038080 
H     4.7951999    1.5642567    0.5244971 
H     4.6410953    0.0286511   -0.3772874 
H     4.1851066    0.0942914    1.3381358 
C    -1.6723706    1.8484372   -1.2721435 
O    -2.0909040    0.7678207   -1.3415556 
O    -1.2913328    2.9347695   -1.2137307 
