14
Energy = -1070.159357266
N     0.8862457   -0.4704592    0.0187440 
C     1.9927645    0.0227459    0.5346120 
N     2.5417261    0.9868833   -0.2313954 
N     1.7663642    1.1087180   -1.2606200 
N     0.7999189    0.2381741   -1.0802575 
H     0.0466863    0.1276457   -1.7415330 
S     2.6931585   -0.4690830    2.0792952 
O     2.8604931    0.7254648    2.8381412 
O     1.9732639   -1.5876593    2.5572795 
O     4.1017420   -0.9804186    1.6180416 
H     4.6987128   -0.2174102    1.5040839 
C     4.7979917    2.4921415    1.2123739 
O     5.4127320    1.5047022    1.1974731 
O     4.2245447    3.4886642    1.2283229 
