12
Energy = -414.5256349875
N    -1.6193205    1.1698319   -0.5922510 
C    -0.7483798    0.6078617    0.2051659 
N     0.0864402   -0.2099072   -0.4781299 
H     0.8367131   -0.7514792   -0.0895151 
C    -0.2789824   -0.1640296   -1.7974950 
C    -1.3373938    0.6966961   -1.8445443 
H    -0.6824386    0.7589755    1.2712017 
H     0.2318939   -0.7302822   -2.5568640 
H    -1.9104199    1.0016072   -2.7050134 
C    -3.4124223    2.8662345    0.6907472 
O    -2.8866583    2.6271932    1.6952464 
O    -3.9860241    3.1518911   -0.2715335 
