21
Energy = -1207.712050120
N     0.4822320    0.8731910   -0.5230066 
C    -0.5567354    1.5288567   -0.0434809 
C    -0.7361316    1.9623730    1.2755332 
C     0.2697690    1.6865766    2.1893918 
C     1.3683150    0.9903227    1.7235823 
C     1.4272060    0.6129031    0.3765050 
S     0.1359992    2.3101786    3.8382593 
O     0.7609420    1.4114685    4.7445099 
O     0.5218936    3.6819111    3.7847450 
O    -1.4112925    2.1949573    4.0636161 
N    -1.9456044    2.5986070    1.4144820 
C    -2.4776711    2.5578789    0.2207335 
N    -1.6943181    1.9340049   -0.6970190 
H    -1.8898286    1.7775212   -1.6724206 
H     2.1763247    0.7338374    2.3953747 
H     2.2906114    0.0683454    0.0118370 
H    -1.8852913    2.6043809    3.3002264 
H    -3.4422389    2.9678083   -0.0370771 
C     0.2718584    0.2334528   -3.2989127 
O     1.2919024   -0.3023880   -3.3313180 
O    -0.7624666    0.7607605   -3.3235230 
