18
Energy = -459.8148301228
C     0.8228701    0.4850451   -0.0661034 
C    -0.0449490    1.5102648    0.2757517 
C    -1.2964727    1.2007586    0.7877955 
C    -1.6739087   -0.1228012    0.9545992 
C    -0.8121593   -1.1637780    0.6151709 
C     0.4405133   -0.8380063    0.1027022 
C    -1.2147859   -2.5913408    0.8223906 
H     1.8025767    0.7144863   -0.4677355 
H     0.2519808    2.5435102    0.1465697 
H    -1.9835763    1.9939896    1.0571854 
H    -2.6563495   -0.3558729    1.3509876 
H     1.1236527   -1.6342504   -0.1725875 
H    -2.2751079   -2.7390614    0.6119300 
H    -1.0404730   -2.8944362    1.8582497 
H    -0.6424905   -3.2622593    0.1809738 
C     0.5896254   -0.3750611    3.6615772 
O     0.1879591   -1.4496387    3.8184603 
O     0.9992974    0.6971407    3.5276195 
