18
Energy = -757.4118306730
C     0.8036749    0.6809472   -0.0529522 
C     1.5201536    1.3825123   -1.0105587 
C     1.2332790    2.7183889   -1.2538978 
C     0.2316890    3.3542289   -0.5387856 
C    -0.4802227    2.6482070    0.4225220 
C    -0.1971700    1.3126576    0.6678177 
C    -1.5140526    3.3644893    1.2394101 
F    -2.3936174    2.5264667    1.7966458 
F    -0.9459228    4.0576993    2.2451192 
F    -2.2073012    4.2478562    0.5109860 
H     1.0261208   -0.3613240    0.1373241 
H     2.3033908    0.8870310   -1.5708847 
H     1.7891981    3.2673501   -2.0034542 
H     0.0034938    4.3960160   -0.7234353 
H    -0.7567638    0.7717885    1.4191478 
C     2.2813197    4.0601462    2.0153338 
O     2.3324124    3.0088929    2.4943110 
O     2.2418441    5.1146989    1.5407874 
