16
Energy = -495.7140682298
C     0.9364403   -0.1699307   -0.1013862 
C     1.5598485    1.0692419   -0.1685556 
C     2.4562784    1.4311478    0.8242244 
C     2.7300165    0.5684258    1.8755124 
C     2.0985140   -0.6687319    1.9352214 
C     1.1990365   -1.0393117    0.9427300 
O     2.3153906   -1.5480106    2.9468556 
H     0.2332895   -0.4642610   -0.8711186 
H     1.3480676    1.7448969   -0.9870476 
H     2.9523437    2.3933997    0.7852150 
H     3.4329010    0.8547060    2.6509912 
H     0.7156104   -2.0056144    1.0078696 
H     2.9216725   -1.1593182    3.5811384 
C     0.6435204    0.6436525    4.6081078 
O    -0.4053582    0.6776702    4.1273317 
O     1.6915183    0.6149799    5.1025937 
