19
Energy = -534.9788181056
C     0.8627997   -0.1372940    0.0572546 
C     0.4576770    0.6120419   -1.0324421 
C    -0.7690949    0.3355835   -1.6254596 
C    -1.5767614   -0.6728630   -1.1369526 
C    -1.1624827   -1.4240608   -0.0387165 
C     0.0625931   -1.1558731    0.5616795 
O    -2.0147900   -2.3944508    0.3772813 
C    -1.6273113   -3.1777019    1.4814015 
H     1.8158523    0.0651513    0.5311430 
H     1.0874471    1.4032287   -1.4184776 
H    -1.1012757    0.9131399   -2.4797307 
H    -2.5338000   -0.8961634   -1.5901360 
H     0.4017858   -1.7270477    1.4141959 
H    -2.4345716   -3.8861348    1.6497868 
H    -1.4911821   -2.5638049    2.3769726 
H    -0.7017837   -3.7242160    1.2762947 
C    -4.6843451   -3.1096990   -0.5680138 
O    -4.7190559   -2.3031322   -1.3958275 
O    -4.6789987   -3.9263219    0.2516142 
