16
Energy = -491.8867058069
C     0.9429349    0.6888801   -0.1328419 
C     0.2024399    0.6746337   -1.3130919 
C     0.7083886   -0.0901556   -2.3693783 
N     1.8301676   -0.7856059   -2.2994188 
C     2.5277079   -0.7667009   -1.1691199 
C     2.1161594   -0.0389817   -0.0635094 
N    -1.0054312    1.3339841   -1.4281995 
H     0.5964865    1.2627694    0.7197814 
H     0.1698191   -0.1356421   -3.3133722 
H     3.4415568   -1.3500908   -1.1535927 
H     2.7082045   -0.0414490    0.8430384 
H    -1.1411191    2.1167964   -0.8120428 
H    -1.3123199    1.5220623   -2.3673167 
C     2.6006074   -2.1849824   -4.5149660 
O     3.5402447   -2.6141510   -3.9930278 
O     1.6850139   -1.8010986   -5.1116379 
