15
Energy = -507.9366874306
N     0.9920058    0.1777393    0.1586274 
C     2.2200544    0.6552233    0.3063673 
N     3.0759608    0.9912722   -0.6441198 
C     2.6253162    0.8197861   -1.8911631 
C     1.3754819    0.3321262   -2.1837167 
C     0.5545676    0.0076236   -1.0927626 
N    -0.6854663   -0.5050295   -1.2443914 
H     2.5530796    0.7842122    1.3324755 
H     3.3080064    1.0896478   -2.6914620 
H     1.0422149    0.2021174   -3.2053225 
H    -1.1255494   -0.5066965   -2.1437409 
H    -1.2582397   -0.5993701   -0.4237367 
C    -0.5655247   -0.2373079    2.4580693 
O     0.3195819    0.0465180    3.1428104 
O    -1.4962364   -0.5319652    1.8312287 
