15
Energy = -507.8886572589
N     1.4909754    0.3671956    0.1520586 
C     0.3865443   -0.2666247   -0.1791286 
C    -0.3320689   -1.1046742    0.6900511 
C     0.2039935   -1.2352446    1.9622477 
C     1.3674315   -0.5399413    2.2355906 
N     1.9960645    0.2383463    1.3634777 
N    -1.4491064   -1.7657293    0.2741555 
H     0.0423196   -0.1055612   -1.1969029 
H    -0.2632804   -1.8565314    2.7171015 
H     1.8354808   -0.6001778    3.2117093 
H    -1.9030263   -1.4466754   -0.5626025 
H    -2.0601068   -2.1527318    0.9703570 
C     4.2915026    1.4301874    2.3810992 
O     4.0893455    0.8872301    3.3858300 
O     4.5606133    2.0045798    1.4153722 
