14
Energy = -523.9814317767
N     0.8581248   -0.5696106    0.2318321 
C     1.7541385   -1.5391004    0.0873688 
N     2.6302861   -1.6585689   -0.8919868 
C     2.5758505   -0.6817934   -1.8116153 
N     1.7173155    0.3481353   -1.7750375 
C     0.9011277    0.3382649   -0.7402724 
N     3.4364164   -0.7414959   -2.8335533 
H     1.7729105   -2.3146645    0.8484332 
H     0.1901744    1.1576638   -0.6760975 
H     4.0943606   -1.4980881   -2.8834439 
H     3.4171295   -0.0208264   -3.5292653 
C     4.4556228   -3.8024845   -0.9891838 
O     4.0294568   -4.2550480   -0.0164580 
O     4.9272095   -3.3985237   -1.9689925 
