12
Energy = -501.8868861751
N     0.3277293    0.4921973    0.1614696 
C     0.5256330   -0.7945422    0.4068407 
N     1.0579885   -1.0029379    1.6362002 
N     1.2010810    0.1733024    2.1732874 
N     0.7685508    1.0241338    1.2917178 
H     0.7691335    2.0158763    1.4599241 
N     0.2834669   -1.7999849   -0.4758011 
H    -0.3807906   -1.5916457   -1.1998026 
H     0.1923489   -2.7110168   -0.0576456 
C     1.1778197   -3.6744665    2.7082401 
O     1.7330816   -3.3759280    3.6739094 
O     0.6178603   -4.0295289    1.7557111 
