18
Energy = -655.4614589170
N     0.7498217   -0.1215760    0.0231992 
C     0.2407730   -0.0253672   -1.1843650 
C     0.9493911    0.2655840   -2.3637326 
C     2.3074100    0.4602914   -2.2011202 
N     2.8552847    0.3698067   -0.9867880 
C     2.0697342    0.0912886    0.0445456 
N     0.0981076    0.2816082   -3.4468484 
C    -1.0765940    0.0214595   -2.9392634 
N    -1.0621249   -0.1817350   -1.5796559 
H    -1.8401734   -0.3351159   -0.9608167 
N    -2.2412843    0.0023476   -3.6426858 
H     2.9639080    0.6890592   -3.0342666 
H     2.5451971    0.0272513    1.0172008 
H    -2.1035737    0.0003695   -4.6394440 
H    -2.9641429   -0.6191827   -3.3235743 
C    -1.1193305   -0.6829729    2.0659877 
O    -1.9706194   -0.6814875    1.2759894 
O    -0.3242230   -0.6992432    2.9007514 
