18
Energy = -655.4716291959
N    -0.0230528    0.4949091    0.0794319 
C     0.1473578    1.7304150   -0.3871833 
C     0.8684220    2.7514954    0.2202683 
C     1.4701735    2.4331084    1.4471114 
N     1.3128527    1.2008787    1.9367754 
C     0.5926982    0.3223091    1.2416440 
N     2.1972481    3.3227870    2.1402575 
N     0.8376075    3.8993030   -0.5371465 
C     0.1164071    3.5759961   -1.5732304 
N    -0.3292480    2.2824136   -1.5421456 
H    -0.8977087    1.8047394   -2.2208804 
H     0.4986894   -0.6633203    1.6865362 
H     2.3135480    4.2556801    1.7934119 
H     2.5951878    3.0496121    3.0187642 
H    -0.1250194    4.2366735   -2.3921112 
C    -1.5437724   -1.2060230   -1.5339151 
O    -1.7037002   -0.3390763   -2.2895905 
O    -1.4285453   -2.1137199   -0.8316067 
