16
Energy = -600.1255240006
N    -0.2863919    2.0910048   -0.2951283 
C    -0.8633128    0.9025248   -0.2816786 
C    -1.5355984    0.3272155    0.8089339 
C    -1.5807116    1.0993322    1.9586929 
N    -1.0090001    2.2983196    1.9739774 
C    -0.4011767    2.7273838    0.8667627 
N    -2.0149204   -0.9202480    0.4739110 
C    -1.6451964   -1.0831246   -0.7625273 
N    -0.9474085   -0.0234025   -1.2794567 
H    -0.5647107    0.0789206   -2.2045271 
H    -2.0725875    0.7601844    2.8649421 
H     0.0533894    3.7108517    0.9184297 
H    -1.8520057   -1.9604130   -1.3577163 
C     0.9151620    2.7943916   -2.7812926 
O     1.2711652    3.8271716   -2.4123419 
O     0.5828990    1.7679275   -3.2102032 
