16
Energy = -640.9450626022
C     1.1756917    0.4800308    0.6652239 
C     2.5032629    0.5397846    1.0442398 
C     2.9764924   -0.2343214    2.0913844 
N     2.1803521   -1.0538420    2.7627766 
C     0.9011024   -1.1201080    2.4077434 
C     0.3527218   -0.3772656    1.3710642 
N     3.4198641    1.4308181    0.3313166 
O     2.9608395    2.0865915   -0.5779604 
O     4.5730939    1.4514865    0.6987117 
H     0.8210584    1.0900780   -0.1539195 
H     4.0177313   -0.1843286    2.3848724 
H     0.2862365   -1.8035855    2.9842663 
H    -0.6964903   -0.4709627    1.1249715 
C     3.0183797   -2.6787681    4.8859810 
O     4.1095881   -2.3022079    4.8129822 
O     1.9426870   -3.0908127    5.0042574 
