15
Energy = -656.9731879127
N     1.0021696   -0.0225663   -0.0724607 
C     0.3442194    0.6794569    0.8428571 
N    -0.2600149    0.2098598    1.9290486 
C    -0.2028878   -1.0993907    2.1253766 
C     0.4612503   -1.9117058    1.2247397 
C     1.0611593   -1.3323161    0.1206501 
N     0.5283825   -3.3547121    1.4349064 
O    -0.0146919   -3.7937239    2.4232028 
O     1.1225156   -4.0053638    0.6048897 
H     0.2927767    1.7524838    0.6899492 
H    -0.6872130   -1.5103334    3.0035123 
H     1.5894741   -1.9397423   -0.6047273 
C    -1.6822468    1.6765639    3.9105432 
O    -1.4922711    2.6949478    3.3963468 
O    -1.8958188    0.6792992    4.4583055 
