15
Energy = -656.9364708715
N     1.0918511   -0.0296825    0.2200992 
C     2.3003773    0.5109735    0.2823002 
C     2.6159774    1.4833480    1.2171882 
C     1.6587041    1.9011612    2.1030394 
C     0.4199229    1.2861446    1.9740908 
N     0.1594346    0.3579692    1.0635230 
N     3.9674893    2.0605582    1.2565905 
O     4.7672364    1.6386969    0.4544363 
O     4.1753683    2.9128523    2.0885169 
H     3.0329136    0.1590119   -0.4316365 
H     1.8658665    2.6576896    2.8466572 
H    -0.4091888    1.5390575    2.6236128 
C    -2.5733430   -0.5630326    1.3256323 
O    -2.6504801    0.1783227    2.2138318 
O    -2.5438073   -1.3141857    0.4492037 
