15
Energy = -656.9366667335
N     1.0282796    0.2759799   -0.6200953 
C     1.7470227    0.8946850    0.2817588 
C     1.2554167    1.7103145    1.2865860 
C    -0.1122296    1.8539597    1.3010000 
C    -0.8352557    1.1785923    0.3247280 
N    -0.2788839    0.4136707   -0.6066080 
N     3.2162575    0.6778037    0.1848961 
O     3.8856310    1.2569513    1.0135998 
O     3.6280402   -0.0388949   -0.6865458 
H     1.9206734    2.1852708    1.9924788 
H    -0.6121611    2.4665963    2.0395512 
H    -1.9154971    1.2450103    0.2745216 
C     1.9819121   -1.5237653   -2.7547800 
O     2.0788997   -0.6390342   -3.4936136 
O     1.8865455   -2.4364158   -2.0503456 
