15
Energy = -656.9664029545
C     1.2018723    1.0490744   -0.4019144 
C     1.9297241    0.2551566    0.4707791 
N     2.4191540    0.6744894    1.6094047 
C     2.1828694    1.9424219    1.9096733 
C     1.4543167    2.7608147    1.0533968 
N     0.9650272    2.3182325   -0.0969789 
N     2.1833000   -1.1661927    0.1219597 
O     1.7647779   -1.5280028   -0.9562197 
O     2.7720494   -1.8464040    0.9206747 
H     0.8171793    0.6572412   -1.3337141 
H     2.5787756    2.3144678    2.8477743 
H     1.2631200    3.7980717    1.3058687 
C     4.2707246   -0.9779302    3.3208079 
O     3.4078238   -1.2692663    4.0338508 
O     5.1597387   -0.6850464    2.6409119 
