17
Energy = -584.0942341467
N     0.1900832    0.8585756    1.2345712 
C    -0.2270321    0.1234621    0.2206804 
C    -1.5421354   -0.3122359   -0.0330272 
C    -2.5239593    0.0623388    0.8725324 
C    -2.1126280    0.8347865    1.9470511 
C    -0.7715330    1.2030511    2.0863916 
N    -1.5805470   -1.0595685   -1.1892425 
C    -0.3477246   -1.0726067   -1.6103135 
N     0.5171421   -0.3819975   -0.8119264 
H     1.5076381   -0.2547678   -0.9311537 
H    -3.5564129   -0.2363320    0.7413771 
H    -2.8252944    1.1627812    2.6923643 
H    -0.4606374    1.8079239    2.9313424 
H    -0.0080020   -1.5741179   -2.5046721 
C     2.9189171    1.4604527    1.3069753 
O     3.0869051    0.8553174    0.3307021 
O     2.8277296    2.0775987    2.2775751 
