14
Energy = -618.9094000134
N     0.7383548    0.4102323   -0.1004082 
C    -0.2711852    1.1055907   -0.5425576 
N    -0.5220883    2.2118680    0.1893625 
H    -1.2605722    2.8781908    0.0104803 
C     0.4026929    2.2248825    1.1809250 
C     1.1739497    1.1005149    0.9834945 
N    -1.0815639    0.7930410   -1.6834201 
O    -1.9816979    1.5860422   -1.9296818 
O    -0.8307465   -0.2032877   -2.3090459 
H     0.4382271    3.0049012    1.9223226 
H     2.0142296    0.7620883    1.5676026 
C    -3.4964629    4.0186813   -1.3122846 
O    -2.7785214    4.1568300   -0.4089261 
O    -4.2213480    3.9065464   -2.1992221 
