12
Energy = -650.9223595061
N     0.5105123    0.1676128    0.1873226 
C     1.1467345   -0.7668455   -0.4867338 
N     0.3637552   -1.7774610   -0.8838000 
N    -0.8185729   -1.4797470   -0.4481665 
N    -0.6953248   -0.3277672    0.1784187 
H    -1.4909472    0.1203742    0.6130229 
N     2.5712432   -0.6962150   -0.7680876 
O     3.0402512   -1.6220543   -1.3818337 
O     3.1509441    0.2813857   -0.3615749 
C    -3.9308240   -1.6193597    0.1477557 
O    -4.3149185   -2.5904295   -0.3374209 
O    -3.5618992   -0.6355996    0.6433930 
