18
Energy = -804.5019148354
N    -0.3681409    0.0821982    1.9324483 
C    -0.2069929    1.2024209    2.6123355 
C     0.8902328    2.0826807    2.5236433 
C     1.8400142    1.6816156    1.6006711 
N     1.7149582    0.5859635    0.8949169 
C     0.6320299   -0.1671982    1.0958458 
N     3.0583583    2.4839176    1.3625846 
O     3.2920142    2.7958991    0.2227484 
O     3.7068518    2.7571627    2.3442454 
N     0.7245252    3.1511055    3.3664250 
C    -0.4204796    2.9243916    3.9429681 
N    -1.0313849    1.7689176    3.5363913 
H    -1.9139500    1.3887928    3.8380247 
H     0.5629128   -1.0763627    0.5104680 
H    -0.8750369    3.5709001    4.6789745 
C    -2.8561690   -1.2742628    2.5150855 
O    -2.6710896   -2.1185690    1.7527065 
O    -3.0870232   -0.4452202    3.2946131 
