18
Energy = -804.5018368898
N     1.0672985    1.8984033    0.3950059 
C     1.4594646    1.5191997    1.5984441 
C     0.6555368    0.8764339    2.5581966 
C    -0.6596111    0.6320807    2.1820881 
N    -1.0743618    1.0036664    0.9813128 
C    -0.2063421    1.6076770    0.1609895 
N     1.3756075    0.6221382    3.6997556 
C     2.5446965    1.0949066    3.4184533 
N     2.6829132    1.6492558    2.1835838 
H     3.5176004    2.0631107    1.7968802 
N     3.6898755    1.0729803    4.3122294 
O     4.7048652    1.5712796    3.8620979 
O     3.5467658    0.5771196    5.3967989 
H    -1.3694596    0.1427786    2.8412482 
H    -0.5900529    1.8938940   -0.8120927 
C     3.1682610    3.1376969   -1.1598966 
O     3.8693632    2.9923397   -0.2465551 
O     2.5083083    3.3020569   -2.0910207 
