19
Energy = -788.4729139385
N     1.2800428   -0.9169019    0.4781978 
C     1.3058467   -0.3850138    1.6867888 
C     2.1622221    0.6386090    2.1478977 
C     3.0878970    1.1601054    1.2510274 
C     3.0779735    0.6176871   -0.0195203 
C     2.1736574   -0.4001094   -0.3556288 
N     1.8940731    0.9295829    3.4619325 
C     0.9295472    0.1184368    3.7572546 
N     0.5172996   -0.7001417    2.7579182 
H    -0.2155335   -1.3906110    2.8072544 
N     0.2815363    0.0333676    5.0517198 
O    -0.6100792   -0.7923730    5.1323695 
O     0.6649748    0.7663917    5.9240428 
H     3.7734350    1.9461470    1.5401671 
H     3.7685908    0.9711791   -0.7735200 
H     2.1793876   -0.8148257   -1.3578059 
C    -0.6590693   -2.9660159    0.0913727 
O    -0.3683282   -3.1376856   -1.0119321 
O    -0.9915837   -2.8348060    1.1950831 
