17
Energy = -624.9183912023
C     0.7310568    0.0711889   -0.2742276 
C     0.5495369    1.1839667    0.5359490 
C    -0.3982807    2.1443041    0.2088698 
C    -1.1707689    1.9985423   -0.9306031 
C    -0.9724761    0.8811984   -1.7228051 
C    -0.0340636   -0.0889313   -1.4167401 
N    -1.7856287    0.7196254   -2.9302121 
O    -2.5969224    1.5847852   -3.1826853 
O    -1.5992274   -0.2696689   -3.6063779 
H     1.4710963   -0.6752879   -0.0160138 
H     1.1510416    1.3036351    1.4285369 
H    -0.5369436    3.0104450    0.8430051 
H    -1.9166769    2.7268875   -1.2143193 
H     0.0815364   -0.9427248   -2.0687769 
C    -3.6246507    0.3887468   -5.7718736 
O    -2.8070025    0.9465774   -6.3705842 
O    -4.4609124   -0.1722942   -5.2027948 
