18
Energy = -513.8975250341
C     0.5383810   -0.0894419    0.2464286 
C     1.0428044   -0.6682042   -0.9180644 
C     2.3308988   -0.2888123   -1.2976639 
N     3.0850263    0.5722118   -0.6289605 
C     2.5849156    1.1106975    0.4756806 
C     1.3154194    0.8082442    0.9506509 
C     0.3119667   -1.6273781   -1.7422368 
C    -0.9182619   -2.0856440   -1.5300828 
H    -0.4548141   -0.3403981    0.5985106 
H     2.7724393   -0.7099901   -2.1973789 
H     3.2256462    1.8117213    1.0009583 
H     0.9485348    1.2718653    1.8574448 
H     0.8556017   -1.9851013   -2.6125638 
H    -1.5195866   -1.7731884   -0.6845082 
H    -1.3685906   -2.7989844   -2.2074315 
C     5.5849470    1.2147251   -1.5699333 
O     5.7796883    1.9471590   -0.6949249 
O     5.4644996    0.5012293   -2.4737399 
